48
Lattice="8.315575849598094 0.0 0.0 4.157787924799047 7.20149657514819 0.0 0.0 0.0 19.999999365264614" Properties=species:S:1:pos:R:3:forces:R:3 energy=-281861.52926068637 free_energy=-281861.52926068637 pbc="T T T"
Pt       3.00284680       1.20024997       7.73678695       0.00021983      -0.11344581      -0.70283445
Pt       5.77470538       1.20024997       7.73678695      -0.00046717      -0.11447117      -0.70262182
Pt       8.54656396       1.20024997       7.73678695      -0.00130946      -0.11347512      -0.70277942
Pt       4.38877609       3.60074992       7.73678695      -0.00180157      -0.11405516      -0.70102028
Pt       7.16063467       3.60074992       7.73678695       0.00075205      -0.11408756      -0.70116477
Pt       9.93249325       3.60074992       7.73678695      -0.00050831      -0.11180108      -0.70220735
Pt       5.77470538       6.00124987       7.73678695      -0.00058955      -0.11507512      -0.70366543
Pt       8.54656396       6.00124987       7.73678695      -0.00080064      -0.11267217      -0.70598945
Pt      11.31842254       6.00124987       7.73678695      -0.00023448      -0.11264183      -0.70610746
Pt       1.61691751       2.00041662      10.00000000       0.00078547       0.11393201       0.70119794
Pt       4.38877609       2.00041662      10.00000000      -0.00175658       0.11388984       0.69371012
Pt       7.16063467       2.00041662      10.00000000       0.00346585       0.11350135       0.69442180
Pt       3.00284680       4.40091657      10.00000000      -0.00156940       0.11085928       0.70421590
Pt       5.77470538       4.40091657      10.00000000       0.00077159       0.11347718       0.69434929
Pt       8.54656396       4.40091657      10.00000000       0.00327661       0.11060114       0.70444936
Pt       4.38877609       6.80141652      10.00000000       0.00110172       0.11190392       0.69862041
Pt       7.16063467       6.80141652      10.00000000       0.00050162       0.11184993       0.69848928
Pt       9.93249325       6.80141652      10.00000000       0.00100042       0.11077135       0.70214076
Pt       1.61946466       0.83314778      12.41476361       0.00064278      -0.00295523       0.00077262
Pt       4.39138485       0.83373301      12.41394812      -0.00131409      -0.00253305      -0.00030185
Pt       7.16312345       0.83367113      12.41407281       0.00282436      -0.00201112      -0.00109529
Pt       3.00513413       3.23351195      12.41520535       0.00013293      -0.00054225      -0.00212527
Pt       5.77727254       3.23502048      12.41374144       0.00073636      -0.00266392       0.00025557
Pt       8.54935033       3.23344218      12.41523441       0.00119453       0.00008150      -0.00227414
Pt       4.39094554       5.63486154      12.41468608       0.00077416      -0.00011493       0.00107652
Pt       7.16374909       5.63482692      12.41465769      -0.00058158       0.00002957       0.00128992
Pt       9.93508982       5.63396752      12.41477144       0.00045534       0.00268166       0.00202474
C        1.61988554       1.54489797      14.51259196      -0.00043297      -0.00012907       0.00072068
C        3.00547121       2.37198092      14.53292056      -0.00073405       0.00007765       0.00198643
C        3.00566836       3.94396494      14.51307166      -0.00029465      -0.00036278       0.00048902
C        4.39120296       4.77199111      14.53545029      -0.00045046       0.00052630       0.00244486
C        4.39158045       6.34535414      14.51264239      -0.00056770       0.00062709       0.00536384
C        5.77773341       7.17303011      14.53545055      -0.00069934      -0.00106547       0.00734616
C        4.39104881       1.54297107      14.50835301      -0.00102664       0.00103487      -0.00462721
C        5.77773407       2.36964132      14.52956619      -0.00055690       0.00222838      -0.00756650
C        5.77767877       3.94590418      14.50802600      -0.00056101       0.00301539       0.00036484
C        7.16421532       4.77192723      14.53552030      -0.00057438       0.00090837       0.00196227
C        7.16382558       6.34527853      14.51262465      -0.00054430       0.00113900       0.00509207
C        8.54948260       7.17164557      14.53662731      -0.00050111       0.00121433       0.00495169
C        7.16433914       1.54305510      14.50863284       0.00013087       0.00049005      -0.00623313
C        8.54992555       2.37196448      14.53330006      -0.00013910      -0.00004731       0.00000720
C        8.54963811       3.94393084      14.51320459      -0.00037358      -0.00015067       0.00008253
C        9.93547035       4.77087874      14.53699273      -0.00012290      -0.00059007       0.00207745
C        9.93544325       6.34427663      14.51322497      -0.00011364       0.00158611       0.00115957
C       11.32150337       7.17174437      14.53664578      -0.00027716       0.00048800       0.00472492
C        5.77098465       2.83584542      17.61188569      -0.00046794       0.00491544       0.00054764
O        6.94426372       2.83715518      17.60856342       0.00023063       0.00146579       0.00853735
O        4.59769988       2.83495358      17.60892696       0.00037384       0.00159460       0.00774159
