179
Lattice="10.720992125991367 0.0 0.0 -5.360496062995684 9.284647205911675 0.0 0.0 0.0 34.99999747733031" Properties=species:S:1:pos:R:3:forces:R:3 energy=-74887.77164193585 free_energy=-74887.77164193585 pbc="T T T"
Si       1.78683208      -0.00000002       5.05623624       0.00014270       0.00001363      -0.05907315
Si       0.89341603       1.54744198      12.64850174       0.00082327       0.00419398       0.03036010
Si       0.89341603       1.54744198       2.52836107       0.00010156       0.00008639       0.14611656
Si       1.78683208      -0.00000002      10.12062657      -0.00072351      -0.00124004      -0.07375801
Si      -0.01043791      -0.00929078      15.19460352       0.00891376       0.00862219      -0.00684273
Si       0.00000000       0.00000000       7.58805938       0.00000026       0.00001723      -0.09397536
C        0.00000000       0.00000000       5.68435955       0.00001054      -0.00010799       0.09086124
C        0.00000000       0.00000000      13.27662505      -0.01175380      -0.01096678       0.20597390
C        1.78683208      -0.00000002       3.15844319       0.00117345       0.00003702       0.09223241
C        0.89341603       1.54744198      10.75070869      -0.00182754      -0.00108218       0.02358190
C        0.89341603       1.54744198       0.63055283       0.00110403       0.00201497      -0.46465928
C        1.78683208      -0.00000002       8.22281833       0.00136088       0.00047797       0.10905694
Si       1.78683208       3.09488391       5.05623624       0.00001774       0.00010336      -0.05909681
Si       3.57366413       0.00000002      12.64850174       0.00023423       0.00128504       0.03325182
Si       3.57366413       0.00000002       2.52836107       0.00013910       0.00002854       0.14606951
Si       1.78683208       3.09488391      10.12062657       0.00165091       0.00149047      -0.07132754
Si       0.01210563       3.10260877      15.19442900      -0.00373658      -0.01285166      -0.00670441
Si       0.00000000       3.09488393       7.58805938       0.00021957       0.00008922      -0.09424559
C        0.00000000       3.09488393       5.68435955      -0.00006222       0.00127372       0.09079465
C        0.00000000       3.09488393      13.27662505       0.01133188       0.01348132       0.20271451
C        1.78683208       3.09488391       3.15844319       0.00061038       0.00114234       0.09205783
C        3.57366413       0.00000002      10.75070869       0.00000231       0.00163702       0.02464120
C        3.57366413       0.00000002       0.63055283       0.00252431      -0.00009642      -0.46465336
C        1.78683208       3.09488391       8.22281833       0.00005631       0.00066489       0.10936573
Si      -0.89341603       1.54744195       5.05623624      -0.00005554       0.00018383      -0.05907752
Si      -1.78683208       3.09488395      12.64850174      -0.00009642       0.00197615       0.02958594
Si      -1.78683208       3.09488395       2.52836107      -0.00005605       0.00007765       0.14618418
Si      -0.89341603       1.54744195      10.12062657       0.00016481      -0.00101713      -0.07348676
Si       2.67792183       1.57141916      15.19445398       0.00268655      -0.01948356      -0.00622464
Si       2.68024811       1.54744196       7.58805938       0.00004422       0.00022111      -0.09415071
C        2.68024811       1.54744196       5.68435955       0.00118811       0.00069368       0.09088335
C        2.68024811       1.54744196      13.27662505       0.00020363       0.02912931       0.20722269
C       -0.89341603       1.54744195       3.15844319      -0.00049982       0.00112974       0.09215322
C       -1.78683208       3.09488395      10.75070869       0.00143493       0.00222555       0.02361301
C       -1.78683208       3.09488395       0.63055283      -0.00134186       0.00220086      -0.46497938
C       -0.89341603       1.54744195       8.22281833      -0.00060807       0.00138377       0.10932845
C       -0.01549593      -0.09563643      18.94915324      -0.00031702       0.00019746       0.00007225
C        1.32514534       0.67869494      18.94890483      -0.00066077      -0.00066412       0.00388159
C       -1.35574907       2.22533909      18.94988725       0.00020492       0.00122616       0.00342728
C       -0.01505423       2.99919454      18.94854104      -0.00055510       0.00003111       0.00018383
C        2.66458918      -0.09498485      18.94914756       0.00021314      -0.00100530       0.00401941
C        4.00402846       0.67866278      18.94901963       0.00079344      -0.00074691       0.00364402
C        1.32559802       2.22587125      18.94689227      -0.00066309      -0.00044994       0.00285367
C        2.66468664       2.99937302      18.94279789      -0.00017304      -0.00038669      -0.00230268
Si      -0.89341603       4.64232588       5.05623624       0.00000720      -0.00003857      -0.05912303
Si      -1.78683208       6.18976788      12.64850174      -0.00070834       0.00184168       0.02368732
Si      -1.78683208       6.18976788       2.52836107       0.00009385      -0.00001260       0.14602786
Si      -0.89341603       4.64232588      10.12062657       0.00097702      -0.00048234      -0.07351015
Si      -2.68793563       4.64138540      15.19473992       0.00979770       0.00965166      -0.00685688
Si      -2.68024811       4.64232589       7.58805938       0.00012290       0.00016301      -0.09424841
C       -2.68024811       4.64232589       5.68435955      -0.00007970      -0.00017175       0.09077460
C       -2.68024811       4.64232589      13.27662505      -0.00941692      -0.00274800       0.20855915
C       -0.89341603       4.64232588       3.15844319       0.00012033       0.00078701       0.09207223
C       -1.78683208       6.18976788      10.75070869      -0.00068674      -0.00094308       0.02212126
C       -1.78683208       6.18976788       0.63055283       0.00122462      -0.00069008      -0.46446490
C       -0.89341603       4.64232588       8.22281833      -0.00028205       0.00091917       0.10887208
Si      -0.89341603       7.73720981       5.05623624       0.00008459       0.00007096      -0.05914309
Si       0.89341603       4.64232591      12.64850174       0.00216667      -0.00165965       0.01545773
Si       0.89341603       4.64232591       2.52836107      -0.00000154       0.00008150       0.14610885
Si      -0.89341603       7.73720981      10.12062657       0.00075590       0.00018281      -0.07242386
Si      -2.67697100       7.73682945      15.19463567      -0.00327816      -0.01473885      -0.00661133
Si      -2.68024811       7.73720982       7.58805938       0.00001543      -0.00014038      -0.09422630
C       -2.68024811       7.73720982       5.68435955       0.00113926      -0.00076645       0.09082628
C       -2.68024811       7.73720982      13.27662505       0.00238855       0.00384791       0.20691493
C       -0.89341603       7.73720981       3.15844319       0.00059727      -0.00025865       0.09202158
C        0.89341603       4.64232591      10.75070869      -0.00116240       0.00317968       0.02039270
C        0.89341603       4.64232591       0.63055283      -0.00004268       0.00140896      -0.46476392
C       -0.89341603       7.73720981       8.22281833       0.00036818      -0.00029825       0.10966629
Si      -3.57366413       6.18976784       5.05623624      -0.00001208      -0.00004319      -0.05912355
Si      -4.46708018       7.73720984      12.64850174      -0.00152672       0.00111046       0.01396983
Si      -4.46708018       7.73720984       2.52836107       0.00004808      -0.00014475       0.14608674
Si      -3.57366413       6.18976784      10.12062657      -0.00003857       0.00007071      -0.07307281
Si      -0.00342980       6.20221320      15.19479398       0.00040495      -0.01997593      -0.00623570
Si       0.00000000       6.18976786       7.58805938       0.00002365      -0.00011519      -0.09409775
C        0.00000000       6.18976786       5.68435955      -0.00002365      -0.00002263       0.09087127
C        0.00000000       6.18976786      13.27662505      -0.00037821       0.01634553       0.21306732
C       -3.57366413       6.18976784       3.15844319       0.00070217      -0.00089860       0.09200178
C       -4.46708018       7.73720984      10.75070869       0.00240887       0.00011621       0.01987977
C       -4.46708018       7.73720984       0.63055283       0.00124699      -0.00227594      -0.46474772
C       -3.57366413       6.18976784       8.22281833       0.00067491      -0.00097573       0.10926674
C       -2.69593421       4.54637012      18.94936127       0.00003985       0.00052065       0.00118399
C       -1.35525571       5.32037772      18.94968813       0.00002571       0.00019438       0.00400758
C       -4.03628676       6.86753585      18.94932492       0.00005888       0.00063661       0.00577650
C       -2.69597233       7.64146064      18.94855930       0.00024734       0.00035378       0.00415979
C       -0.01507729       4.54686282      18.94906477      -0.00009822      -0.00017766       0.00324113
C        1.32495466       5.31992191      18.94686846       0.00054250      -0.00029259       0.00238573
C       -1.35562202       6.86749185      18.94938512       0.00033501       0.00060884       0.00569114
C       -0.01566223       7.64121000      18.94975287       0.00050394       0.00039518       0.00300511
Si       7.14732829      -0.00000002       5.05623624      -0.00011647       0.00000026      -0.05912175
Si       6.25391224       1.54744198      12.64850174      -0.00149844       0.00135060       0.03456308
Si       6.25391224       1.54744198       2.52836107      -0.00001414       0.00002674       0.14614433
Si       7.14732829      -0.00000002      10.12062657       0.00056333      -0.00187099      -0.07309261
Si       5.35763543      -0.00879732      15.19464196       0.01242254       0.00735824      -0.00687359
Si       5.36049621       0.00000000       7.58805938       0.00006993       0.00012084      -0.09433120
C        5.36049621       0.00000000       5.68435955      -0.00003471      -0.00022986       0.09069309
C        5.36049621       0.00000000      13.27662505      -0.00612051      -0.00944675       0.20671207
C        7.14732829      -0.00000002       3.15844319      -0.00116728       0.00009976       0.09194136
C        6.25391224       1.54744198      10.75070869      -0.00204506       0.00028025       0.02490088
C        6.25391224       1.54744198       0.63055283      -0.00135060       0.00067594      -0.46479452
C        7.14732829      -0.00000002       8.22281833      -0.00130278       0.00068726       0.10886308
Si       7.14732829       3.09488391       5.05623624       0.00000823       0.00005271      -0.05914514
Si       8.93416034       0.00000002      12.64850174      -0.00015555      -0.00035918       0.00914361
Si       8.93416034       0.00000002       2.52836107      -0.00010953       0.00003060       0.14606797
Si       7.14732829       3.09488391      10.12062657      -0.00044557       0.00136088      -0.07286326
Si       5.35794019       3.10328254      15.19451198      -0.00335837      -0.01317279      -0.00671032
Si       5.36049621       3.09488393       7.58805938      -0.00022986       0.00003111      -0.09400159
C        5.36049621       3.09488393       5.68435955      -0.00004294      -0.00008176       0.09097437
C        5.36049621       3.09488393      13.27662505      -0.00558984       0.01304989       0.20399492
C        7.14732829       3.09488391       3.15844319      -0.00058030       0.00037744       0.09185060
C        8.93416034       0.00000002      10.75070869      -0.00166145       0.00140459       0.01883770
C        8.93416034       0.00000002       0.63055283      -0.00257187      -0.00006711      -0.46469553
C        7.14732829       3.09488391       8.22281833      -0.00045663      -0.00000077       0.10984010
Si       4.46708018       1.54744195       5.05623624       0.00003651      -0.00003831      -0.05912329
Si       3.57366413       3.09488395      12.64850174      -0.00299996       0.00258524      -0.00415670
Si       3.57366413       3.09488395       2.52836107       0.00003600      -0.00002108       0.14610654
Si       4.46708018       1.54744195      10.12062657      -0.00102947       0.00216513      -0.07332735
Si       8.03929359       1.55200044      15.19496789       0.00175169      -0.02103497      -0.00619147
Si       8.04074432       1.54744196       7.58805938      -0.00002648      -0.00020569      -0.09429958
C        8.04074432       1.54744196       5.68435955      -0.00119633       0.00067569       0.09067201
C        8.04074432       1.54744196      13.27662505      -0.00083175       0.00985941       0.21557517
C        4.46708018       1.54744195       3.15844319       0.00068906       0.00047025       0.09193982
C        3.57366413       3.09488395      10.75070869       0.00325399       0.00129558       0.01564002
C        3.57366413       3.09488395       0.63055283       0.00125470       0.00064046      -0.46489479
C        4.46708018       1.54744195       8.22281833       0.00085566      -0.00015375       0.10914230
C        5.34463648      -0.09557465      18.94929749       0.00058878      -0.00008125      -0.00047591
C        6.68519869       0.67832811      18.94983577      -0.00036895      -0.00006016       0.00435056
C        4.00365444       2.22598033      18.94701187       0.00050445      -0.00058981       0.00247134
C        5.34430948       2.99925755      18.94863427       0.00027768      -0.00017561      -0.00012316
C        8.02510550      -0.09522325      18.94969408       0.00005888      -0.00024091       0.00576570
C        9.36502591       0.67822389      18.94973286       0.00029362       0.00018949       0.00494320
C        6.68496572       2.22531752      18.94994721      -0.00048208       0.00103513       0.00350236
C        8.02514120       2.99882427      18.95007816      -0.00014630       0.00180800       0.00389908
Si       4.46708018       4.64232588       5.05623624      -0.00002263       0.00001466      -0.05909861
Si       3.57366413       6.18976788      12.64850174      -0.00082352       0.00049854       0.04498813
Si       3.57366413       6.18976788       2.52836107      -0.00003934      -0.00013524       0.14608443
Si       4.46708018       4.64232588      10.12062657      -0.00053350      -0.00334269      -0.07315123
Si       2.67264219       4.62218418      15.19414943       0.01034021       0.00875152      -0.00696769
Si       2.68024811       4.64232589       7.58805938       0.00005476      -0.00016249      -0.09404555
C        2.68024811       4.64232589       5.68435955      -0.00006068      -0.00010284       0.09065684
C        2.68024811       4.64232589      13.27662505      -0.00971234      -0.02191737       0.19711954
C        4.46708018       4.64232588       3.15844319       0.00006865      -0.00069394       0.09207378
C        3.57366413       6.18976788      10.75070869      -0.00292694      -0.00187999       0.02713928
C        3.57366413       6.18976788       0.63055283      -0.00141848      -0.00229214      -0.46458163
C        4.46708018       4.64232588       8.22281833       0.00021597       0.00035610       0.10874198
Si       4.46708018       7.73720981       5.05623624      -0.00002571      -0.00012213      -0.05909912
Si       6.25391224       4.64232591      12.64850174      -0.00110712       0.00094437       0.01904339
Si       6.25391224       4.64232591       2.52836107      -0.00002597      -0.00002520       0.14608263
Si       4.46708018       7.73720981      10.12062657       0.00040341       0.00194530      -0.07229196
Si       2.68393326       7.75163952      15.19454071      -0.00373016      -0.01020599      -0.00675223
Si       2.68024811       7.73720982       7.58805938      -0.00014372       0.00002494      -0.09416614
C        2.68024811       7.73720982       5.68435955      -0.00120430      -0.00068700       0.09093221
C        2.68024811       7.73720982      13.27662505       0.00039441       0.01630851       0.20524345
C        4.46708018       7.73720981       3.15844319      -0.00061629      -0.00093948       0.09230672
C        6.25391224       4.64232591      10.75070869       0.00002597       0.00029336       0.02135018
C        6.25391224       4.64232591       0.63055283      -0.00012393      -0.00163728      -0.46490225
C        4.46708018       7.73720981       8.22281833      -0.00072351      -0.00152698       0.10971386
Si       1.78683208       6.18976784       5.05623624      -0.00000103      -0.00003162      -0.05911506
Si       0.89341603       7.73720984      12.64850174      -0.00078676       0.00198541       0.01379140
Si       0.89341603       7.73720984       2.52836107      -0.00006016      -0.00008999       0.14610731
Si       1.78683208       6.18976784      10.12062657      -0.00109838      -0.00037847      -0.07361428
Si       5.36267662       6.20189297      15.19470526       0.00423306      -0.01893026      -0.00623878
Si       5.36049621       6.18976786       7.58805938       0.00002520      -0.00026662      -0.09434972
C        5.36049621       6.18976786       5.68435955       0.00006222      -0.00129944       0.09068795
C        5.36049621       6.18976786      13.27662505       0.00226771       0.01398114       0.21123541
C        1.78683208       6.18976784       3.15844319      -0.00062272      -0.00024811       0.09188249
C        0.89341603       7.73720984      10.75070869       0.00098859       0.00115237       0.01992965
C        0.89341603       7.73720984       0.63055283      -0.00126884      -0.00080476      -0.46488990
C        1.78683208       6.18976784       8.22281833      -0.00032704      -0.00012701       0.10925697
C        2.66465035       4.54627882      18.94203936      -0.00013524      -0.00052219      -0.00531396
C        4.00430423       5.31999160      18.94693159      -0.00054482      -0.00032859       0.00231425
C        1.32439685       6.86724291      18.94911334       0.00075693       0.00027665       0.00312132
C        2.66460387       7.64128198      18.94898202       0.00015015       0.00026945      -0.00024991
C        5.34434993       4.54687983      18.94911125       0.00001851      -0.00034941       0.00293543
C        6.68441237       5.32033651      18.94966339       0.00009719       0.00013858       0.00397390
C        4.00478451       6.86716423      18.94910558      -0.00040109       0.00039749       0.00307787
C        5.34486999       7.64117493      18.94967570      -0.00016018       0.00059907       0.00298839
C        2.63082400       3.79575171      23.32800871      -0.00079601      -0.00037975       0.01253644
O        2.62367953       3.77881131      24.50171868      -0.00035378      -0.00019438      -0.00334423
O        2.63805030       3.81257332      22.14719332      -0.00064740       0.00002880       0.01152291
