48
Lattice="8.315575849598094 0.0 0.0 4.157787924799047 7.20149657514819 0.0 0.0 0.0 19.999999365264614" Properties=species:S:1:pos:R:3:forces:R:3 energy=-280419.31090995774 free_energy=-280419.31090995774 pbc="T T T"
Pt       3.00284680       1.20024997       4.65800846      -0.00854095      -0.07571127      -0.43556082
Pt       5.77470538       1.20024997       4.65800846      -0.00762281      -0.07691404      -0.43237085
Pt       8.54656396       1.20024997       4.65800846      -0.00698286      -0.07577298      -0.43612286
Pt       4.38877609       3.60074992       4.65800846      -0.00806735      -0.07513483      -0.43152958
Pt       7.16063467       3.60074992       4.65800846      -0.00753076      -0.07516749      -0.43170879
Pt       9.93249325       3.60074992       4.65800846      -0.00783415      -0.07571667      -0.43289613
Pt       5.77470538       6.00124987       4.65800846      -0.00788763      -0.07408222      -0.43434314
Pt       8.54656396       6.00124987       4.65800846      -0.00787169      -0.07602212      -0.43228909
Pt      11.31842254       6.00124987       4.65800846      -0.00759195      -0.07609257      -0.43239347
Pt       1.61691751       2.00041662       6.92122151       0.01216955       0.08340967       0.43053277
Pt       4.38877609       2.00041662       6.92122151       0.01169672       0.08201048       0.42892840
Pt       7.16063467       2.00041662       6.92122151       0.01157665       0.08170015       0.42822083
Pt       3.00284680       4.40091657       6.92122151       0.01204279       0.08379225       0.42950433
Pt       5.77470538       4.40091657       6.92122151       0.01124009       0.08799961       0.42252687
Pt       8.54656396       4.40091657       6.92122151       0.01183067       0.08401080       0.42880319
Pt       4.38877609       6.80141652       6.92122151       0.01203688       0.08331891       0.43137018
Pt       7.16063467       6.80141652       6.92122151       0.01166869       0.08408561       0.43106756
Pt       9.93249325       6.80141652       6.92122151       0.01146121       0.08190969       0.43110895
Pt       1.64516630       0.67948024       9.27180333      -0.00062478      -0.00230988       0.00276085
Pt       4.41673672       0.67921430       9.27155359      -0.00056976      -0.00253794       0.00314832
Pt       7.18907241       0.67900465       9.27152740      -0.00018203      -0.00138094       0.00298916
Pt       3.03102893       3.07985152       9.27157753      -0.00059290      -0.00170413       0.00130921
Pt       5.80291713       3.07924440       9.26968672      -0.00022806      -0.00207899       0.00356303
Pt       8.57483297       3.07977573       9.27139959      -0.00057464      -0.00125778       0.00290149
Pt       4.41706407       5.48004803       9.27138482      -0.00048388      -0.00243843       0.00241272
Pt       7.18890053       5.48020274       9.27129021      -0.00083509      -0.00324627       0.00328870
Pt       9.96072827       5.48032812       9.27161285      -0.00077185      -0.00154498       0.00261147
C        1.64611570       1.41532260      11.32080358      -0.00176738      -0.00286909      -0.00162931
C        3.03266528       2.24308199      11.33429179      -0.00191959      -0.00286601      -0.00062478
C        3.03249469       3.81581412      11.32061355      -0.00218081      -0.00290149      -0.00165091
C        4.41872924       4.64293977      11.33168539      -0.00214919      -0.00360906       0.00036998
C        4.41824495       6.21576765      11.32073154      -0.00166633      -0.00341417      -0.00162237
C        5.80414511       7.04340590      11.33404909      -0.00151618      -0.00336557       0.00006351
C        4.41822598       1.41602182      11.32030816      -0.00190879      -0.00234382      -0.00085258
C        5.80419246       2.24416115      11.33062678      -0.00190622      -0.00317840       0.00058107
C        5.80395097       3.81494096      11.31477474      -0.00216538      -0.00301025      -0.00069266
C        7.18969585       4.64289997      11.33163676      -0.00195944      -0.00330078       0.00103873
C        7.18955374       6.21574654      11.32060246      -0.00179592      -0.00290200      -0.00072299
C        8.57607592       7.04407872      11.33381071      -0.00179669      -0.00274825      -0.00033219
C        7.18956277       1.41605633      11.32025641      -0.00160745      -0.00293774      -0.00074099
C        8.57570274       2.24308364      11.33410744      -0.00174784      -0.00313212       0.00023448
C        8.57538842       3.81581860      11.32043463      -0.00193450      -0.00301513      -0.00067723
C        9.96199090       4.64336975      11.33391230      -0.00195610      -0.00319974       0.00008279
C        9.96166416       6.21652216      11.32069124      -0.00159100      -0.00291512      -0.00168099
C       11.34781200       7.04410499      11.33379573      -0.00144265      -0.00327353      -0.00024091
C        5.77907652       3.59596668      15.65018148       0.00076722       0.00055562       0.00502959
O        5.78282252       3.58916242      16.82195117       0.00088883       0.00007713       0.00743177
O        5.77509044       3.60245725      14.47356648       0.00042500       0.00122564       0.00880320
