48
Lattice="8.315575849598094 0.0 0.0 4.157787924799047 7.20149657514819 0.0 0.0 0.0 19.999999365264614" Properties=species:S:1:pos:R:3:forces:R:3 energy=-280419.31097880256 free_energy=-280419.31097880256 pbc="T T T"
Pt       3.00284680       1.20024997       4.60199115       0.00939610      -0.07456071      -0.43323577
Pt       5.77470538       1.20024997       4.60199115       0.01021628      -0.07470597      -0.43229886
Pt       8.54656396       1.20024997       4.60199115       0.01024945      -0.07455145      -0.43308047
Pt       4.38877609       3.60074992       4.60199115       0.01023968      -0.07394647      -0.43101382
Pt       7.16063467       3.60074992       4.60199115       0.00968149      -0.07432082      -0.43137995
Pt       9.93249325       3.60074992       4.60199115       0.01000031      -0.07496386      -0.43241430
Pt       5.77470538       6.00124987       4.60199115       0.00963290      -0.07131135      -0.43665251
Pt       8.54656396       6.00124987       4.60199115       0.00951540      -0.07485278      -0.43255211
Pt      11.31842254       6.00124987       4.60199115       0.01071841      -0.07457228      -0.43233382
Pt       1.61691751       2.00041662       6.86520421      -0.01411099       0.07321833       0.43293495
Pt       4.38877609       2.00041662       6.86520421      -0.01458073       0.07364025       0.42822777
Pt       7.16063467       2.00041662       6.86520421      -0.01386467       0.07390302       0.42762665
Pt       3.00284680       4.40091657       6.86520421      -0.01418992       0.07383566       0.43227289
Pt       5.77470538       4.40091657       6.86520421      -0.01433159       0.07791805       0.42850262
Pt       8.54656396       4.40091657       6.86520421      -0.01357311       0.07444758       0.43048263
Pt       4.38877609       6.80141652       6.86520421      -0.01382431       0.07286686       0.43387263
Pt       7.16063467       6.80141652       6.86520421      -0.01481444       0.07337774       0.43288738
Pt       9.93249325       6.80141652       6.86520421      -0.01375823       0.07179034       0.43192630
Pt       1.58232913       0.66994907       9.21528519      -0.00236490       0.00116008      -0.00089834
Pt       4.35359083       0.66958771       9.21453066      -0.00016275       0.00016584       0.00338229
Pt       7.12685578       0.66965494       9.21444178      -0.00422972      -0.00083741       0.00380446
Pt       2.96801849       3.07065060       9.21485029      -0.00055382      -0.00075745       0.00060421
Pt       5.74014737       3.06880348       9.21340011      -0.00098242       0.00083664       0.00160334
Pt       8.51240294       3.07097864       9.21455794      -0.00487815      -0.00294108       0.00388391
Pt       4.35451819       5.47018160       9.21501040      -0.00207925       0.00197589      -0.00058004
Pt       7.12573660       5.47040879       9.21477537      -0.00156195       0.00092560       0.00258370
Pt       9.89807855       5.47153441       9.21529210      -0.00324782      -0.00362783      -0.00219495
C        1.57964748       1.40503120      11.26509563       0.00373710       0.00277525      -0.00224149
C        2.96550110       2.23264113      11.27799585       0.00378338      -0.00098859      -0.00266881
C        2.96605570       3.80521568      11.26463834       0.00245900       0.00382400       0.00275931
C        4.35177285       4.63202956      11.27711783       0.00124750       0.00079678      -0.00248549
C        4.35188326       6.20542733      11.26465231       0.00178126       0.00376667       0.00100736
C        5.73702340       7.03307911      11.27802794       0.00340465      -0.00011699      -0.00392787
C        4.35173011       1.40572896      11.26357131       0.00340337       0.00204326       0.00300408
C        5.73723444       2.23367092      11.27174954       0.00140665      -0.00015761      -0.00113668
C        5.73765025       3.80435702      11.26203456       0.00095696       0.00270197      -0.00278553
C        7.12244818       4.63219938      11.27713653       0.00377387      -0.00049879      -0.00295137
C        7.12308961       6.20561347      11.26464548       0.00376358       0.00240475       0.00109966
C        8.50884330       7.03425066      11.27734936       0.00501699      -0.00363425      -0.00126473
C        7.12339857       1.40570655      11.26347889       0.00135240       0.00212784       0.00293723
C        8.50858952       2.23266479      11.27788837       0.00388725      -0.00132386      -0.00212476
C        8.50881845       3.80535654      11.26450263       0.00522242       0.00281819       0.00293260
C        9.89473535       4.63323712      11.27707430       0.00505325      -0.00274568       0.00349516
C        9.89516685       6.20672286      11.26436675       0.00443541      -0.00120045       0.00167636
C       11.28080513       7.03412360      11.27709571       0.00238650      -0.00294468       0.00112614
C        5.71900467       2.86593625      15.62582184       0.00039209      -0.00132746      -0.00264746
O        5.74660740       2.83712361      16.79697965       0.00076207      -0.00198695       0.00197949
O        5.69163066       2.89487356      14.44978782      -0.00076722      -0.00044609       0.00625678
