101
Lattice="17.265850017958673 -0.00010359510010775204 0.0 -8.633011338229426 14.952692293502695 0.0 -0.0 0.0 15.000000722551901" Properties=species:S:1:pos:R:3:forces:R:3 energy=-26089.637293293847 free_energy=-26089.637293293847 pbc="T T T"
C        1.20625617       0.66506500       5.01783068      -0.00024374      -0.00024760       0.00198952
C       -0.02711256       1.37715700       5.01778407      -0.00000643      -0.00025531       0.00207154
C       -0.02720235       2.80123913       5.00851748       0.00148018       0.00207359      -0.00214044
C       -1.26046230       3.51338811       5.00575150       0.00196689      -0.00215458      -0.00120868
C       -1.26023439       4.93744261       4.99648146      -0.00375612      -0.00022780      -0.00179643
C       -2.49363247       5.64952425       4.99610679       0.00161388      -0.00177303      -0.00542271
C       -2.49353751       7.07358048       4.99172472      -0.00119736      -0.00022677      -0.00139894
C       -3.72690279       7.78559479       4.99357907       0.00265004       0.00009590       0.00025223
C       -3.72686480       9.20963893       4.99488264       0.00169641      -0.00182343       0.00212964
C       -4.96020246       9.92153410       5.00019362       0.00137040       0.00276574       0.00261378
C       -4.96008505      11.34556961       5.00470864       0.00018923       0.00024066       0.00005374
C       -6.19340716      12.05750276       5.01158217       0.00081015       0.00404332       0.00282461
C       -6.19338644      13.48162115       5.01468830      -0.00044917      -0.00066720       0.00870550
C       -7.42668438      14.19365272       5.02065192       0.00029542       0.00261687      -0.00312595
C        3.67294874       0.66506155       5.00589826      -0.00236002       0.00061141      -0.00117217
C        2.43958691       1.37703096       5.00859000       0.00098499       0.00245926      -0.00198721
C        2.43951267       2.80115626       4.99669383      -0.00011776       0.00333524      -0.00135343
C        1.20615430       3.51324308       4.99665757       0.00306296       0.00086518      -0.00131692
C        1.20651861       4.93734938       4.98259972      -0.00269966       0.00387131      -0.00175941
C       -0.02684840       5.64941030       4.98535362      -0.00053248      -0.00055844       0.00082918
C       -0.02670682       7.07357012       4.97850598      -0.00106624      -0.00191907      -0.00390345
C       -1.26016360       7.78556198       4.98529319       0.00198926      -0.00027331      -0.00234665
C       -1.26006864       9.20964066       4.98538125      -0.00036998      -0.00279427      -0.00682834
C       -2.49340975       9.92161352       4.99188702      -0.00182420       0.00120148      -0.00067080
C       -2.49341147      11.34567321       4.99453042      -0.00017329      -0.00096905       0.00137400
C       -3.72674394      12.05760463       5.00098957      -0.00033064       0.00030493       0.00376692
C       -3.72672840      13.48164878       5.00295615      -0.00034530       0.00064278       0.00243895
C       -4.96005570      14.19364236       5.00901129       0.00042063       0.00248497       0.00319485
C        6.13948764       0.66517205       4.99628118      -0.00211705       0.00068803      -0.00541063
C        4.90610855       1.37729513       4.99663340       0.00158791      -0.00362706      -0.00170567
C        4.90599459       2.80142215       4.98546585       0.00003137      -0.00022831       0.00079627
C        3.67265176       3.51353660       4.98266533       0.00433051      -0.00140485      -0.00178897
C        3.67292629       4.93764462       4.96699830      -0.00298042       0.00112614       0.00330130
C        2.43970605       5.64965720       4.96697240       0.00195969      -0.00278245       0.00331518
C        2.44019467       7.07368235       4.95721374       0.00054764       0.00105518       0.00127115
C        1.20676551       7.78539278       4.96672377       0.00009565       0.00029079       0.00471617
C        1.20670335       9.20943692       4.96988860      -0.00246183      -0.00239807       0.00180054
C       -0.02661703       9.92146849       4.98003747      -0.00553430       0.00261893      -0.00148378
C       -0.02675861      11.34555580       4.98577145      -0.00145036      -0.00052939      -0.00201060
C       -1.26004102      12.05757701       4.99209939      -0.00388777       0.00156889      -0.00546411
C       -1.26018950      13.48168676       4.99436121       0.00059470       0.00098062       0.00436342
C       -2.49347536      14.19375114       4.99842042      -0.00166736       0.00042397      -0.00097522
C        8.60602136       0.66518241       4.99362914      -0.00149510       0.00187073       0.00025711
C        7.37271651       1.37729513       4.99183177      -0.00001106      -0.00120379      -0.00138325
C        7.37261810       2.80142560       4.98535707      -0.00124210       0.00154292      -0.00239164
C        6.13929081       3.51363846       4.97859059      -0.00168639      -0.00261533      -0.00394227
C        6.13899729       4.93775685       4.96676003       0.00023731       0.00073251       0.00462387
C        4.90592380       5.65009230       4.95723791       0.00049751       0.00057181       0.00125753
C        4.90577532       7.07364955       4.94819751       0.00023706       0.00071374      -0.00836586
C        3.67310585       7.78534271       4.94820096       0.00032010       0.00006582      -0.00839182
C        3.67305406       9.20885851       4.95973801      -0.00080990      -0.00247674      -0.00028539
C        2.44010143       9.92120432       4.96896315      -0.00174681       0.00147041      -0.00080373
C        2.43975266      11.34538141       4.98143945       0.00091248      -0.00187948      -0.00239704
C        1.20650997      12.05753730       4.98701977      -0.00188796       0.00090271      -0.00127372
C        1.20633904      13.48164705       4.99367576      -0.00045483      -0.00014013      -0.00305601
C       -0.02690883      14.19381157       4.99388468      -0.00106521      -0.00204274       0.00137554
C       11.07243768       0.66508054       5.00008484       0.00158817       0.00204634       0.00261198
C        9.83925369       1.37724161       4.99481876      -0.00235205       0.00016635       0.00218878
C        9.83911038       2.80142215       4.99179206       0.00146527      -0.00055253      -0.00065615
C        8.60585043       3.51355386       4.98535535      -0.00199003      -0.00249654      -0.00688413
C        8.60558626       4.93765844       4.97997876       0.00440353      -0.00344811      -0.00146450
C        7.37228142       5.64972626       4.96986615      -0.00070911      -0.00328921       0.00187973
C        7.37199135       7.07376523       4.96893380       0.00128452      -0.00088292      -0.00070011
C        6.13860017       7.78537378       4.95972419      -0.00141539      -0.00269914      -0.00020595
C        6.13906635       9.20923146       4.97162036      -0.00230525      -0.00034736      -0.00152132
C        4.90592726       9.92118533       4.97162036       0.00054970      -0.00128838      -0.00153469
C        4.90610164      11.34527264       4.98746523      -0.00254925      -0.00074022      -0.00009873
C        3.67289694      12.05746133       4.98964246       0.00057130       0.00011030       0.00246903
C        3.67279334      13.48153482       5.00091706      -0.00001131       0.00264258      -0.00219752
C        2.43950576      14.19366135       4.99911105       0.00065563       0.00249680      -0.00518694
C       13.53882982       0.66506846       5.01144232       0.00252379       0.00192550       0.00272897
C       12.30562166       1.37719671       5.00454289       0.00016378      -0.00016378       0.00005322
C       12.30558540       2.80130992       5.00078756      -0.00000051      -0.00009410       0.00374044
C       11.07237207       3.51344681       4.99435949      -0.00068057      -0.00074382       0.00131743
C       11.07221322       4.93752376       4.99192846       0.00221835      -0.00266829      -0.00551964
C        9.83893082       5.64957260       4.98566095       0.00103847      -0.00192858      -0.00196175
C        9.83888248       7.07358912       4.98696452       0.00159871      -0.00074279      -0.00127552
C        8.60552238       7.78553608       4.98142909      -0.00172418       0.00022086      -0.00247520
C        8.60562597       9.20951807       4.98967872      -0.00050625       0.00010927       0.00244743
C        7.37225379       9.92141151       4.98749286       0.00129995      -0.00154240      -0.00011673
C        7.37251796      11.34546947       5.00147474      -0.00181983       0.00058518       0.00415542
C        6.13921829      12.05751485       5.00145230       0.00190416      -0.00049519       0.00420324
C        6.13923383      13.48159698       5.01326214      -0.00141796       0.00084846      -0.00249680
C        4.90596179      14.19369761       5.01041500       0.00090888      -0.00024400      -0.00481053
C       16.00540153       0.66507018       5.02056559       0.00224329       0.00134880      -0.00303982
C       14.77212431       1.37713628       5.01453809       0.00004474      -0.00115957       0.00874484
C       14.77208287       2.80123050       5.00882482       0.00190519       0.00229368       0.00319588
C       13.53882119       3.51333804       5.00273688       0.00098293       0.00011390       0.00237056
C       13.53887989       4.93741499       4.99820805       0.00147170      -0.00140048      -0.00098628
C       12.30558022       5.64943792       4.99416956       0.00072145       0.00094462       0.00449763
C       12.30564238       7.07354077       4.99378971      -0.00112383      -0.00149381       0.00132849
C       11.07227538       7.78548774       4.99364641      -0.00001825      -0.00018589      -0.00308995
C       11.07230818       9.20945246       4.99917321       0.00138454       0.00157429      -0.00521420
C        9.83894291       9.92145122       5.00099475       0.00281536       0.00198181      -0.00221578
C        9.83911384      11.34550745       5.01051169      -0.00109220       0.00005502      -0.00482622
C        8.60578482      12.05751312       5.01331221       0.00178126      -0.00056461      -0.00240115
C        8.60586079      13.48160043       5.02104904      -0.00180337      -0.00034633      -0.00190544
C        7.37248170      14.19370279       5.02101451       0.00051268      -0.00164525      -0.00192293
C        4.33638730       7.51080360       9.21223399      -0.00200289      -0.00369030       0.00906622
O        4.31424384       7.47245097      10.38510318       0.00028771       0.00038721       0.01955761
O        4.35814054       7.54848287       8.03895042       0.00328510       0.00598553       0.01639053
