179
Lattice="10.720992125991367 0.0 0.0 -5.360496062995684 9.284647205911675 0.0 0.0 0.0 34.99999747733031" Properties=species:S:1:pos:R:3:forces:R:3 energy=-75886.01117205621 free_energy=-75886.01117205621 pbc="T T T"
Si       1.78683208      -0.00000002       5.05623624      -0.00057567      -0.00003008      -0.06955837
Si       0.89341603       1.54744198      12.64850174      -0.00150024       0.00064560       0.07659419
Si       0.89341603       1.54744198       2.52836107      -0.00039441      -0.00077596       0.00680545
Si       1.78683208      -0.00000002      10.12062657      -0.00178666       0.00030570      -0.06313909
Si       0.00242104       0.00424364      15.20713511       0.00152441       0.00120919      -0.00349413
Si       0.00000000       0.00000000       7.58805938       0.00003600       0.00006505      -0.07067834
C        0.00000000       0.00000000       5.68435955       0.00008485      -0.00004808       0.07845310
C        0.00000000       0.00000000      13.27662505       0.00217978       0.00438270       0.26378619
C        1.78683208      -0.00000002       3.15844319       0.00120610       0.00008459       0.08967416
C        0.89341603       1.54744198      10.75070869      -0.00025814       0.00020595      -0.00753745
C        0.89341603       1.54744198       0.63055283      -0.00458942      -0.00728265      -0.43334427
C        1.78683208      -0.00000002       8.22281833       0.00173935      -0.00000000       0.10282304
Si       1.78683208       3.09488391       5.05623624      -0.00029928      -0.00053916      -0.06937762
Si       3.57366413       0.00000002      12.64850174       0.00043117      -0.00074433       0.10532498
Si       3.57366413       0.00000002       2.52836107      -0.00105518       0.00004885       0.00724640
Si       1.78683208       3.09488391      10.12062657      -0.00064560      -0.00037872      -0.06232148
Si       0.00924938       3.09109008      15.20707694       0.00011081      -0.00095542      -0.00496017
Si       0.00000000       3.09488393       7.58805938       0.00020106      -0.00075925      -0.07056470
C        0.00000000       3.09488393       5.68435955       0.00002314       0.00144470       0.07847367
C        0.00000000       3.09488393      13.27662505       0.01034329      -0.00300665       0.26024089
C        1.78683208       3.09488391       3.15844319       0.00062606       0.00092123       0.09030306
C        3.57366413       0.00000002      10.75070869       0.00122744      -0.00042963      -0.00184657
C        3.57366413       0.00000002       0.63055283      -0.00815168      -0.00036047      -0.43272026
C        1.78683208       3.09488391       8.22281833       0.00073534       0.00075513       0.10278191
Si      -0.89341603       1.54744195       5.05623624       0.00027357      -0.00051499      -0.06955785
Si      -1.78683208       3.09488395      12.64850174       0.00111689       0.00139894       0.10628375
Si      -1.78683208       3.09488395       2.52836107       0.00048260      -0.00098036       0.00722094
Si      -0.89341603       1.54744195      10.12062657       0.00196458      -0.00087803      -0.06311518
Si       2.67320511       1.55338602      15.20701224      -0.00210882       0.00001157       0.00081787
Si       2.68024811       1.54744196       7.58805938      -0.00069600      -0.00023191      -0.07064594
C        2.68024811       1.54744196       5.68435955       0.00121922       0.00077236       0.07725959
C        2.68024811       1.54744196      13.27662505      -0.00639510       0.00683168       0.26798505
C       -0.89341603       1.54744195       3.15844319      -0.00069060       0.00096005       0.08975875
C       -1.78683208       3.09488395      10.75070869       0.00034170       0.00158791      -0.00165450
C       -1.78683208       3.09488395       0.63055283       0.00437576      -0.00680442      -0.43260533
C       -0.89341603       1.54744195       8.22281833      -0.00142953       0.00120945       0.10290223
C       -0.00085174       0.00115258      18.89889757      -0.00100067      -0.00484190      -0.00375098
C        1.33971889       0.77538067      18.89676339      -0.00176583      -0.00680828       0.00954805
C       -1.34078378       2.32183941      18.89969115      -0.00500054      -0.00333781      -0.00495709
C       -0.00033610       3.09665319      18.89593920      -0.00441690      -0.00844479       0.01103749
C        2.67856191       0.00080177      18.89755034       0.00374738      -0.00208439       0.00639408
C        4.01899036       0.77338617      18.89655959       0.00101199       0.00236876       0.00009282
C        1.34013572       2.32246687      18.89341592      -0.00535252      -0.00757704       0.01970185
C        2.67946279       3.09542822      18.88892816      -0.00544765      -0.00359980       0.00557389
Si      -0.89341603       4.64232588       5.05623624      -0.00004114      -0.00047925      -0.06924109
Si      -1.78683208       6.18976788      12.64850174      -0.00260736      -0.00034530       0.09273429
Si      -1.78683208       6.18976788       2.52836107      -0.00044737       0.00022291       0.00746828
Si      -0.89341603       4.64232588      10.12062657       0.00037847      -0.00038104      -0.06328025
Si      -2.68936729       4.64585195      15.20702190      -0.00060061       0.00106701      -0.00454365
Si      -2.68024811       4.64232589       7.58805938      -0.00019643       0.00010979      -0.07049168
C       -2.68024811       4.64232589       5.68435955      -0.00000257       0.00010439       0.07856469
C       -2.68024811       4.64232589      13.27662505      -0.00986327       0.00341622       0.25910035
C       -0.89341603       4.64232588       3.15844319       0.00003394       0.00068134       0.09061030
C       -1.78683208       6.18976788      10.75070869       0.00043323      -0.00046511      -0.00468918
C       -1.78683208       6.18976788       0.63055283      -0.00458865       0.00234716      -0.43239553
C       -0.89341603       4.64232588       8.22281833      -0.00006942       0.00069574       0.10334292
Si      -0.89341603       7.73720981       5.05623624      -0.00044557       0.00025608      -0.06923749
Si       0.89341603       4.64232591      12.64850174       0.00211088      -0.00280302       0.08810862
Si       0.89341603       4.64232591       2.52836107       0.00007559      -0.00047463       0.00741609
Si      -0.89341603       7.73720981      10.12062657       0.00040598       0.00019952      -0.06300051
Si      -2.68236323       7.73306791      15.20704238      -0.00181751      -0.00106289      -0.00309869
Si      -2.68024811       7.73720982       7.58805938      -0.00068057       0.00026354      -0.07075136
C       -2.68024811       7.73720982       5.68435955       0.00129198      -0.00077544       0.07854180
C       -2.68024811       7.73720982      13.27662505      -0.00127475      -0.00451100       0.26153621
C       -0.89341603       7.73720981       3.15844319       0.00052605      -0.00039955       0.09082936
C        0.89341603       4.64232591      10.75070869      -0.00022677       0.00049802      -0.00589528
C        0.89341603       4.64232591       0.63055283       0.00026251      -0.00513501      -0.43223201
C       -0.89341603       7.73720981       8.22281833       0.00041678      -0.00034247       0.10334446
Si      -3.57366413       6.18976784       5.05623624      -0.00029645       0.00058235      -0.06936142
Si      -4.46708018       7.73720984      12.64850174       0.00052013       0.00123619       0.09264353
Si      -4.46708018       7.73720984       2.52836107      -0.00050625       0.00071297       0.00674143
Si      -3.57366413       6.18976784      10.12062657      -0.00037384      -0.00055484      -0.06255545
Si       0.00369790       6.19315924      15.20705191       0.00037024       0.00118991       0.00254796
Si       0.00000000       6.18976786       7.58805938       0.00009796       0.00002751      -0.07039732
C        0.00000000       6.18976786       5.68435955      -0.00009256       0.00002725       0.07746914
C        0.00000000       6.18976786      13.27662505       0.00415233       0.00312389       0.26841469
C       -3.57366413       6.18976784       3.15844319       0.00054790      -0.00091403       0.09038765
C       -4.46708018       7.73720984      10.75070869       0.00031779      -0.00032010      -0.00406543
C       -4.46708018       7.73720984       0.63055283      -0.00403432       0.00767371      -0.43292518
C       -3.57366413       6.18976784       8.22281833       0.00033681      -0.00059341       0.10297165
C       -2.68183473       4.64173563      18.89518086       0.00338409       0.00376795       0.01533637
C       -1.34159076       5.41654916      18.90042672       0.00621950      -0.00247906      -0.00921432
C       -4.02283113       6.96291504      18.89626916       0.00707310       0.00270866       0.01492423
C       -2.68241683       7.73692842      18.89779052       0.00862785       0.00103050       0.00326864
C       -0.00094409       4.64374344      18.89844895       0.00042320      -0.00738292      -0.00219469
C        1.33857340       5.41700703      18.89482995       0.00074253      -0.00603772       0.00923592
C       -1.34234723       6.96322204      18.90154075       0.01032426      -0.00023603      -0.01827283
C       -0.00181797       7.73669154      18.89952246       0.00640050      -0.00041138      -0.00127938
Si       7.14732829      -0.00000002       5.05623624       0.00068288       0.00002263      -0.06937479
Si       6.25391224       1.54744198      12.64850174      -0.00192344       0.00076825       0.08922731
Si       6.25391224       1.54744198       2.52836107       0.00052039      -0.00035558       0.00735927
Si       7.14732829      -0.00000002      10.12062657      -0.00016995      -0.00078213      -0.06263619
Si       5.36747840      -0.00323902      15.20707849       0.00286112      -0.00171313      -0.00443901
Si       5.36049621       0.00000000       7.58805938       0.00019078       0.00002674      -0.07050839
C        5.36049621       0.00000000       5.68435955      -0.00004165       0.00005425       0.07854900
C        5.36049621       0.00000000      13.27662505       0.00677846      -0.00252611       0.26035659
C        7.14732829      -0.00000002       3.15844319      -0.00095774       0.00000411       0.09048586
C        6.25391224       1.54744198      10.75070869      -0.00142850       0.00039055      -0.00569474
C        6.25391224       1.54744198       0.63055283       0.00372321      -0.00252919      -0.43233562
C        7.14732829      -0.00000002       8.22281833      -0.00073996       0.00044480       0.10302333
Si       7.14732829       3.09488391       5.05623624       0.00044557      -0.00023011      -0.06923004
Si       8.93416034       0.00000002      12.64850174       0.00099090      -0.00149227       0.09267721
Si       8.93416034       0.00000002       2.52836107       0.00087263       0.00004628       0.00661339
Si       7.14732829       3.09488391      10.12062657      -0.00128864       0.00112614      -0.06271101
Si       5.36356466       3.09977584      15.20707074       0.00010542       0.00058930      -0.00785318
Si       5.36049621       3.09488393       7.58805938       0.00001234       0.00011519      -0.07026876
C        5.36049621       3.09488393       5.68435955       0.00004988      -0.00001671       0.07878477
C        5.36049621       3.09488393      13.27662505       0.00303493       0.00550139       0.25733374
C        7.14732829       3.09488391       3.15844319      -0.00039775       0.00027022       0.09073295
C        8.93416034       0.00000002      10.75070869      -0.00051396      -0.00064303      -0.00397364
C        8.93416034       0.00000002       0.63055283       0.00858157      -0.00037924      -0.43309461
C        7.14732829       3.09488391       8.22281833       0.00025145      -0.00031805       0.10306267
Si       4.46708018       1.54744195       5.05623624      -0.00039698      -0.00024477      -0.06926680
Si       3.57366413       3.09488395      12.64850174       0.00077570       0.00220472       0.08909824
Si       3.57366413       3.09488395       2.52836107      -0.00054147      -0.00024220       0.00732044
Si       4.46708018       1.54744195      10.12062657       0.00062066       0.00081401      -0.06314269
Si       8.03699272       1.54417520      15.20696704      -0.00016532      -0.00091351       0.00297682
Si       8.04074432       1.54744196       7.58805938       0.00054739      -0.00035224      -0.07079327
C        8.04074432       1.54744196       5.68435955      -0.00130098       0.00064149       0.07718966
C        8.04074432       1.54744196      13.27662505      -0.00461487      -0.00290355       0.26848128
C        4.46708018       1.54744195       3.15844319       0.00047308       0.00031830       0.09073295
C        3.57366413       3.09488395      10.75070869       0.00132695       0.00043992      -0.00571273
C        3.57366413       3.09488395       0.63055283      -0.00409937      -0.00215921      -0.43219884
C        4.46708018       1.54744195       8.22281833       0.00000823      -0.00013010       0.10319200
C        5.35924516      -0.00037784      18.89579263       0.00249706       0.00321876       0.01225568
C        6.70037996       0.77370780      18.89591966      -0.00342779       0.00464778       0.01603237
C        4.01969475       2.32092140      18.89218702      -0.00394767       0.00306244      -0.01075492
C        5.36082455       3.09383877      18.88878202      -0.00419527       0.00814628      -0.00847667
C        8.04029740       0.00077195      18.89882923      -0.00368568       0.00091994       0.00277473
C        9.38014713       0.77488006      18.90140772      -0.00461950      -0.00352344      -0.01813682
C        6.70068154       2.32021418      18.89411962      -0.00508359       0.00814783       0.00829721
C        8.04012151       3.09429713      18.89678887      -0.00324422       0.00405669       0.00972983
Si       4.46708018       4.64232588       5.05623624      -0.00006428       0.00046280      -0.06925446
Si       3.57366413       6.18976788      12.64850174      -0.00168382      -0.00096365       0.10355658
Si       3.57366413       6.18976788       2.52836107       0.00055099       0.00092200       0.00695972
Si       4.46708018       4.64232588      10.12062657       0.00071451      -0.00087392      -0.06263490
Si       2.67749903       4.63767236      15.20690157      -0.00048080      -0.00082095      -0.00645115
Si       2.68024811       4.64232589       7.58805938      -0.00002494      -0.00019258      -0.07053667
C        2.68024811       4.64232589       5.68435955      -0.00010953      -0.00003188       0.07848781
C        2.68024811       4.64232589      13.27662505      -0.00251505      -0.00482827       0.25596360
C        4.46708018       4.64232588       3.15844319       0.00000668      -0.00061629       0.09081085
C        3.57366413       6.18976788      10.75070869      -0.00108526      -0.00037512      -0.00247983
C        3.57366413       6.18976788       0.63055283       0.00374481       0.00724100      -0.43253411
C        4.46708018       4.64232588       8.22281833      -0.00023243       0.00005554       0.10290969
Si       4.46708018       7.73720981       5.05623624       0.00029645       0.00052065      -0.06957379
Si       6.25391224       4.64232591      12.64850174       0.00025454      -0.00177380       0.07324199
Si       6.25391224       4.64232591       2.52836107       0.00004371       0.00059495       0.00740452
Si       4.46708018       7.73720981      10.12062657       0.00010413       0.00111226      -0.06343040
Si       2.67309640       7.74025411      15.20708786      -0.00274722       0.00159023      -0.00442024
Si       2.68024811       7.73720982       7.58805938       0.00048851       0.00036561      -0.07061226
C        2.68024811       7.73720982       5.68435955      -0.00123747      -0.00075256       0.07841813
C        2.68024811       7.73720982      13.27662505      -0.00766934       0.00224097       0.26108961
C        4.46708018       7.73720981       3.15844319      -0.00054250      -0.00103693       0.08965977
C        6.25391224       4.64232591      10.75070869       0.00046614      -0.00108166      -0.00909142
C        6.25391224       4.64232591       0.63055283       0.00041343       0.00443078      -0.43229809
C        4.46708018       7.73720981       8.22281833      -0.00046280      -0.00155577       0.10304313
Si       1.78683208       6.18976784       5.05623624       0.00047283       0.00018640      -0.06925395
Si       0.89341603       7.73720984      12.64850174       0.00167147       0.00170876       0.07784812
Si       0.89341603       7.73720984       2.52836107       0.00045663       0.00025402       0.00729628
Si       1.78683208       6.18976784      10.12062657       0.00009179       0.00027794      -0.06276628
Si       5.36739600       6.18373239      15.20702490       0.00212399      -0.00004654       0.00075925
Si       5.36049621       6.18976786       7.58805938       0.00007430       0.00054893      -0.07063463
C        5.36049621       6.18976786       5.68435955       0.00012367      -0.00141848       0.07724442
C        5.36049621       6.18976786      13.27662505       0.00661236      -0.00777322       0.26814266
C        1.78683208       6.18976784       3.15844319      -0.00050291      -0.00033347       0.09072677
C        0.89341603       7.73720984      10.75070869      -0.00052733       0.00039775      -0.00783749
C        0.89341603       7.73720984       0.63055283       0.00433694       0.00287758      -0.43230760
C        1.78683208       6.18976784       8.22281833      -0.00062298      -0.00037461       0.10309584
C        2.67916907       4.64280214      18.88770823      -0.00397287      -0.00223017       0.00543197
C        4.01977713       5.41575949      18.89177422      -0.00165733       0.00272820      -0.00413639
C        1.33837095       6.96357626      18.89712928       0.00279633      -0.00208465       0.00863891
C        2.67906817       7.73749934      18.89617059      -0.00049082      -0.00005091       0.01165430
C        5.36035280       4.64160442      18.88963143      -0.00154420       0.00744977      -0.00192036
C        6.69874886       5.41503107      18.89319560       0.00429323       0.00681445       0.01948691
C        4.01979502       6.96371555      18.89697367      -0.00048800       0.00076336      -0.00031779
C        5.35922908       7.73692670      18.89855098       0.00199800       0.00087006      -0.00219392
C        4.03281908       3.86139089      22.21835405       0.00251917      -0.00011030       0.00734461
O        5.20426565       3.76641565      22.21183392      -0.00398212       0.00063943       0.01102463
O        2.86142924       3.95629183      22.20727770       0.00067286       0.00011570       0.01109380
