101
Lattice="17.265850017958673 -0.00010359510010775204 0.0 -8.633011338229426 14.952692293502695 0.0 -0.0 0.0 15.000000722551901" Properties=species:S:1:pos:R:3:forces:R:3 energy=-26515.579582674454 free_energy=-26515.579582674454 pbc="T T T"
C        1.20713939       0.66560172       5.01671156      -0.00123644       0.00218749       0.00428551
C       -0.02621400       1.37774325       5.01800579       0.00237698      -0.00198618       0.00426443
C       -0.02619376       2.80179911       5.00980487       0.00145653       0.00196792      -0.00408883
C       -1.25953712       3.51375844       5.00833975       0.00340748       0.00167045       0.00501854
C       -1.25940393       4.93784864       4.99936052       0.00056179       0.00028436       0.00137940
C       -2.49279306       5.64985778       4.99837926       0.00297220       0.00370804      -0.00506404
C       -2.49267573       7.07403990       4.99335997      -0.00034324      -0.00270120       0.00720526
C       -3.72600480       7.78602350       4.99513411       0.00080296       0.00174938      -0.00346122
C       -3.72601109       9.21017097       4.99699791       0.00020466      -0.00405977       0.00143622
C       -4.95931575       9.92214201       5.00143776       0.00092020       0.00022291       0.00668872
C       -4.95920348      11.34615338       5.00760065      -0.00252894      -0.00076105      -0.00904103
C       -6.19247291      12.05811862       5.01264674      -0.00193218      -0.00015118       0.00282513
C       -6.19255372      13.48215590       5.01540957      -0.00258190       0.00115237       0.00539263
C       -7.42590240      14.19418318       5.01984669       0.00206511       0.00139328      -0.00598861
C        3.67378293       0.66554353       5.00391888      -0.00256853       0.00484422      -0.00012290
C        2.44046041       1.37763033       5.00672645       0.00231631       0.00392222      -0.00446755
C        2.44051205       2.80182189       4.99377397      -0.00002134       0.00505942       0.00092637
C        1.20714298       3.51384306       4.99632114       0.00360314       0.00206280      -0.00335786
C        1.20755606       4.93799829       4.98300109      -0.00526716      -0.00017946      -0.00187382
C       -0.02595990       5.64988246       4.98886334       0.00017304       0.00215896      -0.00694146
C       -0.02592475       7.07408195       4.98257279       0.00079884      -0.00264387      -0.00533144
C       -1.25936196       7.78612314       4.98832409       0.00277602      -0.00061398      -0.00077185
C       -1.25935036       9.21027375       4.98835225       0.00037101      -0.00687976       0.00202989
C       -2.49270168       9.92224421       4.99497607       0.00055202      -0.00231811      -0.00346328
C       -2.49277032      11.34625316       4.99767177       0.00188385      -0.00270429       0.00293620
C       -3.72601681      12.05818692       5.00430986       0.00068417      -0.00087932       0.00095157
C       -3.72605128      13.48214832       5.00460806       0.00099656       0.00150127      -0.00082327
C       -4.95930401      14.19417086       5.00950278       0.00157326       0.00259116       0.00200212
C        6.14025854       0.66552970       4.99385327      -0.00010207       0.00523837      -0.00707362
C        4.90695820       1.37776541       4.99285837       0.00095902       0.00003908       0.00064612
C        4.90684470       2.80200514       4.97884689       0.00211782      -0.00065846      -0.00360392
C        3.67365631       3.51436343       4.97584838       0.00438039      -0.00562377       0.00006325
C        3.67425057       4.93856515       4.95581899      -0.00506996      -0.00627118      -0.00334192
C        2.44082612       5.65020292       4.96216760      -0.00305421      -0.00311746       0.00210213
C        2.44108732       7.07419447       4.95411461      -0.00325836      -0.00283978       0.00002674
C        1.20759201       7.78595068       4.97009396      -0.00193270       0.00068803      -0.00113154
C        1.20745102       9.21002671       4.97464091      -0.00360392      -0.00220909      -0.00430865
C       -0.02591530       9.92204448       4.98450941      -0.00290175       0.00074768       0.00020157
C       -0.02612582      11.34604829       4.98973087       0.00226334       0.00103153      -0.00135729
C       -1.25940071      12.05802876       4.99475503      -0.00147864       0.00164525      -0.00300253
C       -1.25948911      13.48204499       4.99555940       0.00192961       0.00451229       0.00230345
C       -2.49278251      14.19411334       4.99816102       0.00058081       0.00332624       0.00541551
C        8.60681598       0.66560266       4.99365664      -0.00008433       0.00242661      -0.00604878
C        7.37354657       1.37771488       4.98906509      -0.00285727       0.00110018       0.00211550
C        7.37345884       2.80191460       4.98000455      -0.00200675       0.00221398      -0.00098190
C        6.14009412       3.51428836       4.96983140       0.00096416      -0.00377746      -0.00487095
C        6.13981759       4.93845774       4.95177136       0.00133852      -0.00295805      -0.00167327
C        4.90708650       5.65087441       4.93638815      -0.00279890      -0.00666327       0.00110609
C        4.90705983       7.07413397       4.92394802      -0.00077853      -0.00171647      -0.00765854
C        3.67442639       7.78566001       4.93797783      -0.00233790       0.00163162      -0.00126215
C        3.67395262       9.20943271       4.95664573      -0.00116857       0.00312286       0.00303339
C        2.44085219       9.92180821       4.97301080      -0.00435673       0.00121228      -0.00580555
C        2.44043433      11.34595029       4.98702657       0.00278168      -0.00129584      -0.00561863
C        1.20714268      12.05807910       4.99136960       0.00040598      -0.00266366      -0.00004165
C        1.20708633      13.48211969       4.99605579       0.00207282       0.00114774       0.00119068
C       -0.02617429      14.19418081       4.99481149      -0.00157506       0.00062041       0.00427292
C       11.07332220       0.66558271       5.00287215       0.00134494       0.00095439       0.00741172
C        9.84013620       1.37769720       4.99570715      -0.00383223      -0.00175658       0.00293286
C        9.84014237       2.80181883       4.99155050      -0.00332546       0.00069625      -0.00163034
C        8.60682118       3.51396098       4.98106420      -0.00484499      -0.00140511      -0.00202834
C        8.60642153       4.93811715       4.97384737       0.00378286      -0.00238187      -0.00175066
C        7.37313388       5.65022668       4.95708723       0.00135266      -0.00323599       0.00182163
C        7.37282976       7.07422195       4.95345414       0.00353270      -0.00094822       0.00053325
C        6.13963480       7.78573305       4.93761494       0.00105467       0.00074511       0.00255311
C        6.13996726       9.20936967       4.95984555       0.00287809       0.00355532       0.00422869
C        4.90692837       9.92162141       4.96732200       0.00048105       0.00415979      -0.00075539
C        4.90686218      11.34568605       4.99036837       0.00197898       0.00347073      -0.00264412
C        3.67365864      12.05797726       4.99498959       0.00054482      -0.00179694      -0.00306604
C        3.67361874      13.48207488       5.00515700       0.00148044      -0.00012804       0.00404152
C        2.44038100      14.19419382       5.00189021      -0.00303519      -0.00096236       0.00097445
C       13.53970739       0.66551577       5.01669276       0.00254385       0.00105261       0.00057104
C       12.30652581       1.37764351       5.00986177       0.00039184      -0.00175092      -0.00831109
C       12.30661771       2.80168208       5.00529643      -0.00191727       0.00022549       0.00335503
C       11.07342608       3.51377815       4.99605308      -0.00402815       0.00062735       0.00221295
C       11.07308175       4.93785577       4.99230128       0.00210933      -0.00145344      -0.00568394
C        9.83981921       5.64996693       4.98280043       0.00029259      -0.00002443      -0.00378646
C        9.83984129       7.07403947       4.98352733      -0.00215381      -0.00225589      -0.00294417
C        8.60633744       7.78589908       4.97407669       0.00119505       0.00153315      -0.00825915
C        8.60651531       9.20990564       4.98497603       0.00032242       0.00053068      -0.00087957
C        7.37306738       9.92164624       4.98300441       0.00390936       0.00293311      -0.00380960
C        7.37336085      11.34573898       5.00245776      -0.00338743       0.00176403      -0.00706333
C        6.14006592      12.05791901       5.00463392       0.00189542      -0.00213170      -0.00368670
C        6.14013238      13.48204789       5.01621248      -0.00269529      -0.00077056      -0.00392659
C        4.90685136      14.19416071       5.01447800      -0.00022677      -0.00193038      -0.00100942
C       16.00632520       0.66561123       5.02228477       0.00069754      -0.00073456      -0.00585877
C       14.77296923       1.37756219       5.01927465       0.00287218      -0.00100916       0.00341031
C       14.77305017       2.80159346       5.01342834       0.00112331       0.00270274      -0.00047103
C       13.53983764       3.51365143       5.00716726      -0.00073996       0.00212193       0.00088189
C       13.53974010       4.93771232       5.00050162       0.00210342       0.00074613       0.00534378
C       12.30640555       5.64973189       4.99547479       0.00290355       0.00432074       0.00224252
C       12.30652260       7.07389401       4.99422103      -0.00008176      -0.00072659       0.00261558
C       11.07323884       7.78595331       4.99226271      -0.00293543       0.00110223       0.00059135
C       11.07323822       9.21004153       4.99805362      -0.00008767      -0.00268680      -0.00177612
C        9.83985523       9.92197482       4.99907481       0.00110120      -0.00056924      -0.00054867
C        9.84007972      11.34602206       5.00967045      -0.00504630      -0.00045097      -0.00014578
C        8.60665121      12.05793250       5.01300654      -0.00004499      -0.00222683      -0.00214919
C        8.60667084      13.48204213       5.01967124      -0.00203349       0.00057258       0.00928143
C        7.37334805      14.19421954       5.02100850       0.00151027      -0.00381423       0.00980644
C        5.02362189       7.10301464       9.22841384      -0.00058493       0.00112100       0.01527544
O        5.00188255       7.07901415       8.05110920       0.00143390      -0.00136808       0.02454092
O        5.04489502       7.12713921      10.40452658       0.00171981       0.00007559       0.01031707
