179
Lattice="10.720992125991367 0.0 0.0 -5.360496062995684 9.284647205911675 0.0 0.0 0.0 34.99999747733031" Properties=species:S:1:pos:R:3:forces:R:3 energy=-73227.21633101134 free_energy=-73227.21633101134 pbc="T T T"
Si       1.78683208      -0.00000002       5.05623624       0.00034684      -0.00000771      -0.02531637
Si       0.89341603       1.54744198      12.64850174      -0.00017175       0.00051911      -0.15943874
Si       0.89341603       1.54744198       2.52836107       0.00031650       0.00030725       0.27077162
Si       1.78683208      -0.00000002      10.12062657      -0.00077159      -0.00160591      -0.07268791
Si       0.00068409      -0.00151522      15.17117868      -0.00294726       0.00086595       0.00242069
Si       0.00000000       0.00000000       7.58805938      -0.00012598      -0.00011184      -0.09751217
C        0.00000000       0.00000000       5.68435955       0.00000848       0.00001491       0.08549664
C        0.00000000       0.00000000      13.27662505       0.00018512      -0.00182060      -0.03806210
C        1.78683208      -0.00000002       3.15844319       0.00196818      -0.00001363       0.08496056
C        0.89341603       1.54744198      10.75070869      -0.00143493       0.00153366       0.03750725
C        0.89341603       1.54744198       0.63055283       0.00275777       0.00464778      -0.19344620
C        1.78683208      -0.00000002       8.22281833       0.00226180       0.00044352       0.10402092
Si       1.78683208       3.09488391       5.05623624       0.00018101       0.00025017      -0.02533231
Si       3.57366413       0.00000002      12.64850174       0.00079396       0.00040418      -0.15732246
Si       3.57366413       0.00000002       2.52836107       0.00033759       0.00010439       0.27070785
Si       1.78683208       3.09488391      10.12062657      -0.00015632       0.00190570      -0.07284167
Si       0.00005931       3.09657807      15.17123758       0.00118836      -0.00362088       0.00250400
Si       0.00000000       3.09488393       7.58805938       0.00013370       0.00026842      -0.09761836
C        0.00000000       3.09488393       5.68435955      -0.00001311       0.00218518       0.08549381
C        0.00000000       3.09488393      13.27662505      -0.00005631       0.00435005      -0.03621116
C        1.78683208       3.09488391       3.15844319       0.00101893       0.00176069       0.08479395
C        3.57366413       0.00000002      10.75070869       0.00353501      -0.00247083       0.03825956
C        3.57366413       0.00000002       0.63055283       0.00537849      -0.00000463      -0.19380436
C        1.78683208       3.09488391       8.22281833       0.00104361       0.00115391       0.10378541
Si      -0.89341603       1.54744195       5.05623624      -0.00017741       0.00029053      -0.02529246
Si      -1.78683208       3.09488395      12.64850174      -0.00089834       0.00027228      -0.15770890
Si      -1.78683208       3.09488395       2.52836107      -0.00022986       0.00026405       0.27086083
Si      -0.89341603       1.54744195      10.12062657       0.00120919      -0.00011801      -0.07299722
Si       2.68001197       1.54772535      15.17229254       0.00177123       0.00265955      -0.00068211
Si       2.68024811       1.54744196       7.58805938       0.00041061       0.00032602      -0.09792201
C        2.68024811       1.54744196       5.68435955       0.00188770       0.00106469       0.08532257
C        2.68024811       1.54744196      13.27662505       0.00241221       0.00136911      -0.01154760
C       -0.89341603       1.54744195       3.15844319      -0.00089732       0.00174244       0.08496288
C       -1.78683208       3.09488395      10.75070869       0.00022420       0.00332829       0.03813794
C       -1.78683208       3.09488395       0.63055283      -0.00271431       0.00465421      -0.19389846
C       -0.89341603       1.54744195       8.22281833      -0.00132797       0.00175478       0.10382372
C        0.04100953       0.08218394      18.60739866       0.00066566      -0.00256365      -0.00091403
C        1.38153820       0.85641035      18.60869295       0.00053967      -0.00193578       0.00207359
C       -1.29998224       2.40273020      18.60800391       0.00114800      -0.00001800       0.00469715
C        0.04134547       3.17726444      18.60707595       0.00018383      -0.00043400       0.00131846
C        2.72114049       0.08259265      18.60825989       0.00082378      -0.00022034       0.00430197
C        4.06044303       0.85606301      18.60863330       0.00089706       0.00105698       0.00271354
C        1.38208500       2.40324620      18.60911776      -0.00009924      -0.00204686      -0.00083561
C        2.72176204       3.17682892      18.60966616      -0.00170156      -0.00200212      -0.00676226
Si      -0.89341603       4.64232588       5.05623624      -0.00003394       0.00019078      -0.02537602
Si      -1.78683208       6.18976788      12.64850174      -0.00079499      -0.00028488      -0.15849591
Si      -1.78683208       6.18976788       2.52836107       0.00031342      -0.00009924       0.27095725
Si      -0.89341603       4.64232588      10.12062657      -0.00045483      -0.00121279      -0.07276710
Si      -2.68130228       4.64240422      15.17114592      -0.00158406      -0.00025968       0.00259861
Si      -2.68024811       4.64232589       7.58805938      -0.00012521      -0.00009102      -0.09763096
C       -2.68024811       4.64232589       5.68435955      -0.00000103      -0.00000206       0.08550564
C       -2.68024811       4.64232589      13.27662505      -0.00156529      -0.00012290      -0.03805130
C       -0.89341603       4.64232588       3.15844319       0.00005065       0.00113694       0.08465383
C       -1.78683208       6.18976788      10.75070869      -0.00094642      -0.00039775       0.03806210
C       -1.78683208       6.18976788       0.63055283       0.00278476      -0.00156246      -0.19415711
C       -0.89341603       4.64232588       8.22281833       0.00016069       0.00150590       0.10407440
Si      -0.89341603       7.73720981       5.05623624       0.00020543      -0.00009385      -0.02535648
Si       0.89341603       4.64232591      12.64850174       0.00193476       0.00012496      -0.16134264
Si       0.89341603       4.64232591       2.52836107      -0.00007636       0.00025351       0.27066800
Si      -0.89341603       7.73720981      10.12062657      -0.00030802       0.00120790      -0.07316357
Si      -2.68319863       7.73766485      15.17127320       0.00406286      -0.00256313       0.00247931
Si      -2.68024811       7.73720982       7.58805938       0.00029388      -0.00034041      -0.09763919
C       -2.68024811       7.73720982       5.68435955       0.00192653      -0.00111689       0.08554137
C       -2.68024811       7.73720982      13.27662505      -0.00093228      -0.00085309      -0.03557610
C       -0.89341603       7.73720981       3.15844319       0.00101327      -0.00051551       0.08468263
C        0.89341603       4.64232591      10.75070869       0.00155860      -0.00114003       0.03722160
C        0.89341603       4.64232591       0.63055283      -0.00002700       0.00313675      -0.19393703
C       -0.89341603       7.73720981       8.22281833       0.00107832      -0.00097599       0.10386383
Si      -3.57366413       6.18976784       5.05623624       0.00014810      -0.00027382      -0.02531354
Si      -4.46708018       7.73720984      12.64850174      -0.00107961      -0.00150872      -0.16170542
Si      -4.46708018       7.73720984       2.52836107       0.00015555      -0.00039029       0.27092948
Si      -3.57366413       6.18976784      10.12062657       0.00107421      -0.00066386      -0.07277790
Si       0.00104306       6.18786399      15.17236353       0.00053813       0.00439916      -0.00082790
Si       0.00000000       6.18976786       7.58805938       0.00018023       0.00006351      -0.09795235
C        0.00000000       6.18976786       5.68435955      -0.00004834      -0.00003214       0.08541385
C        0.00000000       6.18976786      13.27662505       0.00157146      -0.00244075      -0.00987792
C       -3.57366413       6.18976784       3.15844319       0.00109349      -0.00169281       0.08474150
C       -4.46708018       7.73720984      10.75070869       0.00201137      -0.00010799       0.03683671
C       -4.46708018       7.73720984       0.63055283       0.00268269      -0.00469638      -0.19348040
C       -3.57366413       6.18976784       8.22281833       0.00073662      -0.00158097       0.10376870
C       -2.63932315       4.72448223      18.60751110       0.00035250       0.00140614      -0.00070551
C       -1.29842432       5.49820747      18.60854942      -0.00001980       0.00186071       0.00242198
C       -3.98050517       7.04509111      18.60958228      -0.00091454      -0.00114003      -0.00522680
C       -2.63931319       7.81917472      18.60701953       0.00022060       0.00022343       0.00165013
C        0.04168080       4.72488768      18.60889882      -0.00082275       0.00125624      -0.00013164
C        1.38152351       5.49831926      18.60934434      -0.00298711       0.00036253      -0.00620433
C       -1.29838433       7.04468625      18.60815469       0.00051345       0.00156683       0.00453671
C        0.04124082       7.81753544      18.60838605       0.00088446       0.00215150       0.00289866
Si       7.14732829      -0.00000002       5.05623624      -0.00029028      -0.00002931      -0.02533488
Si       6.25391224       1.54744198      12.64850174      -0.00068648       0.00070680      -0.16506817
Si       6.25391224       1.54744198       2.52836107      -0.00004757       0.00010722       0.27092305
Si       7.14732829      -0.00000002      10.12062657      -0.00108501      -0.00109478      -0.07241975
Si       5.36448942       0.00185698      15.17108883      -0.00625421      -0.00228880       0.00298119
Si       5.36049621       0.00000000       7.58805938      -0.00005528       0.00008073      -0.09761193
C        5.36049621       0.00000000       5.68435955       0.00000154      -0.00005708       0.08550358
C        5.36049621       0.00000000      13.27662505       0.00461204       0.00279325      -0.03864522
C        7.14732829      -0.00000002       3.15844319      -0.00200006      -0.00000180       0.08472942
C        6.25391224       1.54744198      10.75070869      -0.00375561       0.00138351       0.03656777
C        6.25391224       1.54744198       0.63055283      -0.00265775       0.00153238      -0.19409258
C        7.14732829      -0.00000002       8.22281833      -0.00172444       0.00031522       0.10387334
Si       7.14732829       3.09488391       5.05623624      -0.00015041       0.00010362      -0.02532588
Si       8.93416034       0.00000002      12.64850174      -0.00052733      -0.00139534      -0.16283722
Si       8.93416034       0.00000002       2.52836107      -0.00040546       0.00010387       0.27086366
Si       7.14732829       3.09488391      10.12062657      -0.00162262       0.00152878      -0.07283550
Si       5.36021078       3.09736695      15.17094083       0.00083818      -0.00354632       0.00269812
Si       5.36049621       3.09488393       7.58805938       0.00003574       0.00000977      -0.09750497
C        5.36049621       3.09488393       5.68435955       0.00000874      -0.00002520       0.08552158
C        5.36049621       3.09488393      13.27662505      -0.00024425       0.00331647      -0.04261501
C        7.14732829       3.09488391       3.15844319      -0.00098628       0.00060138       0.08464483
C        8.93416034       0.00000002      10.75070869      -0.00052013      -0.00142491       0.03679403
C        8.93416034       0.00000002       0.63055283      -0.00538929      -0.00002545      -0.19346780
C        7.14732829       3.09488391       8.22281833      -0.00053350       0.00010901       0.10365788
Si       4.46708018       1.54744195       5.05623624       0.00019309       0.00008613      -0.02534336
Si       3.57366413       3.09488395      12.64850174       0.00099142       0.00178974      -0.16269607
Si       3.57366413       3.09488395       2.52836107       0.00012418      -0.00003008       0.27080350
Si       4.46708018       1.54744195      10.12062657       0.00205303       0.00072582      -0.07288332
Si       8.03747373       1.54450406      15.17211101       0.00471437       0.00555410      -0.00032653
Si       8.04074432       1.54744196       7.58805938      -0.00036407       0.00026277      -0.09786776
C        8.04074432       1.54744196       5.68435955      -0.00190005       0.00103975       0.08534880
C        8.04074432       1.54744196      13.27662505      -0.00649178      -0.00217078      -0.01465040
C        4.46708018       1.54744195       3.15844319       0.00104053       0.00063275       0.08470859
C        3.57366413       3.09488395      10.75070869       0.00187099       0.00189079       0.03690099
C        3.57366413       3.09488395       0.63055283       0.00268989       0.00153161      -0.19401596
C        4.46708018       1.54744195       8.22281833       0.00037872       0.00031573       0.10375224
C        5.40137946       0.08164164      18.60680517       0.00198669       0.00244460       0.00407263
C        6.74195358       0.85568855      18.60868854       0.00269503       0.00231039       0.00186739
C        4.06039839       2.40320631      18.60999023      -0.00050702      -0.00003625      -0.00563329
C        5.40129843       3.17772878      18.60824064       0.00036818       0.00023860      -0.00717158
C        8.08198168       0.08211131      18.60878870       0.00156683       0.00056976      -0.00022831
C        9.42119207       0.85610011      18.60835849       0.00120353      -0.00143005       0.00237827
C        6.74205138       2.40277753      18.60915629       0.00201574       0.00125753      -0.00098473
C        8.08178319       3.17583234      18.60854648       0.00140202       0.00102767       0.00207257
Si       4.46708018       4.64232588       5.05623624      -0.00002108      -0.00022060      -0.02534131
Si       3.57366413       6.18976788      12.64850174       0.00006351      -0.00088883      -0.16398110
Si       3.57366413       6.18976788       2.52836107      -0.00008510      -0.00039312       0.27106292
Si       4.46708018       4.64232588      10.12062657      -0.00065280      -0.00134546      -0.07223849
Si       2.68359126       4.64273764      15.17099651      -0.00445469       0.00011159       0.00246929
Si       2.68024811       4.64232589       7.58805938       0.00005425       0.00007379      -0.09754560
C        2.68024811       4.64232589       5.68435955      -0.00004525      -0.00004628       0.08545421
C        2.68024811       4.64232589      13.27662505       0.00441021       0.00086672      -0.04219463
C        4.46708018       4.64232588       3.15844319       0.00003908      -0.00113848       0.08467723
C        3.57366413       6.18976788      10.75070869      -0.00386103      -0.00087957       0.03654643
C        3.57366413       6.18976788       0.63055283      -0.00269554      -0.00471155      -0.19397122
C        4.46708018       4.64232588       8.22281833       0.00020286      -0.00077236       0.10379415
Si       4.46708018       7.73720981       5.05623624      -0.00016198      -0.00032884      -0.02525877
Si       6.25391224       4.64232591      12.64850174      -0.00104001      -0.00037641      -0.16544715
Si       6.25391224       4.64232591       2.52836107      -0.00008382      -0.00012033       0.27081070
Si       4.46708018       7.73720981      10.12062657      -0.00116085       0.00070757      -0.07267866
Si       2.68041442       7.73877244      15.17101780       0.00154472      -0.00465447       0.00237801
Si       2.68024811       7.73720982       7.58805938      -0.00025942      -0.00022857      -0.09752451
C        2.68024811       7.73720982       5.68435955      -0.00189619      -0.00113154       0.08549689
C        2.68024811       7.73720982      13.27662505      -0.00171364       0.00073405      -0.04134308
C        4.46708018       7.73720981       3.15844319      -0.00097291      -0.00163522       0.08495362
C        6.25391224       4.64232591      10.75070869       0.00181391      -0.00299636       0.03641865
C        6.25391224       4.64232591       0.63055283      -0.00007610      -0.00319922      -0.19406224
C        4.46708018       7.73720981       8.22281833      -0.00066566      -0.00196175       0.10363525
Si       1.78683208       6.18976784       5.05623624      -0.00014244      -0.00012187      -0.02533282
Si       0.89341603       7.73720984      12.64850174       0.00139559       0.00031213      -0.16038747
Si       0.89341603       7.73720984       2.52836107      -0.00020929      -0.00021212       0.27094105
Si       1.78683208       6.18976784      10.12062657       0.00198643      -0.00009950      -0.07279564
Si       5.35850805       6.18656407      15.17197334       0.00213479       0.00527359      -0.00064818
Si       5.36049621       6.18976786       7.58805938       0.00001003      -0.00032139      -0.09778831
C        5.36049621       6.18976786       5.68435955       0.00004834      -0.00224046       0.08532283
C        5.36049621       6.18976786      13.27662505      -0.00274825      -0.00679208      -0.01845615
C        1.78683208       6.18976784       3.15844319      -0.00093511      -0.00051499       0.08468442
C        0.89341603       7.73720984      10.75070869      -0.00038001       0.00125984       0.03748797
C        0.89341603       7.73720984       0.63055283      -0.00269246      -0.00164114      -0.19409721
C        1.78683208       6.18976784       8.22281833      -0.00161002      -0.00058827       0.10366122
C        2.72254363       4.72523953      18.60632791      -0.00366305      -0.00156143      -0.00789509
C        4.06226958       5.49881717      18.60476497      -0.00235796      -0.00111843      -0.00535972
C        1.38083708       7.04455482      18.60951426      -0.00117448       0.00118271      -0.00456602
C        2.72193640       7.81868398      18.60770216      -0.00068211       0.00024631      -0.00547079
C        5.40101991       4.72573554      18.60784218      -0.00027254      -0.00063738      -0.00725308
C        6.74042956       5.49853391      18.60939620      -0.00047925       0.00009667      -0.00586546
C        4.06245829       7.04441555      18.60751315      -0.00139791      -0.00098370      -0.00583666
C        5.40134978       7.81796339      18.60921298      -0.00024657      -0.00232325      -0.00516355
C        4.04438350       5.49833480      22.94557401      -0.00094822      -0.00074511      -0.00018872
O        4.04892080       5.52183640      24.11653360      -0.00036510       0.00077930       0.01829906
O        4.04004846       5.47493915      21.76882899      -0.00087392      -0.00071939       0.00290432
