101
Lattice="17.265850017958673 -0.00010359510010775204 0.0 -8.633011338229426 14.952692293502695 0.0 -0.0 0.0 15.000000722551901" Properties=species:S:1:pos:R:3:forces:R:3 energy=-26089.701908357518 free_energy=-26089.701908357518 pbc="T T T"
C        1.20942100       0.66264606       5.00874712       0.00537695       0.00164448       0.00163496
C       -0.02389594       1.37470180       5.00543553       0.00317763       0.00372424       0.00424541
C       -0.02376472       2.79883055       5.00170783       0.00207977      -0.00062683       0.00317711
C       -1.25696597       3.51089665       5.00131417      -0.00051499       0.00517357       0.00205483
C       -1.25687618       4.93504957       4.99866214       0.00074433      -0.00113360      -0.00068494
C       -2.49017930       5.64712775       4.99987075       0.00129198       0.00107961      -0.00178126
C       -2.49015168       7.07121334       4.99722562       0.00092071      -0.00097239      -0.00016429
C       -3.72351005       7.78317239       4.99944083       0.00235719      -0.00371627       0.00234896
C       -3.72349451       9.20709394       5.00002441       0.00031290       0.00354015       0.00222040
C       -4.95685116       9.91903573       5.00502288       0.00292874      -0.00132669       0.00182163
C       -4.95677346      11.34300909       5.00872467       0.00196715       0.00770997       0.00163882
C       -6.19004723      12.05509936       5.01326041      -0.00082172      -0.00124261       0.00157069
C       -6.19023542      13.47912451       5.01418932       0.00612642       0.00670904      -0.00577290
C       -7.42346603      14.19133219       5.01288402       0.00039415      -0.00175812       0.00369468
C        3.67621543       0.66265469       5.00900783       0.00362037       0.00351701      -0.00040135
C        2.44288469       1.37462410       5.00759031      -0.00360340       0.00092765       0.00078239
C        2.44278800       2.79875976       5.00353629       0.00613671      -0.00110249       0.00065975
C        1.20962128       3.51088974       5.00046469      -0.00331775       0.00339463       0.00283516
C        1.20963337       4.93507719       4.99728260       0.00363888      -0.00234356      -0.00165785
C       -0.02350055       5.64713466       4.99580464      -0.00448040       0.00076542       0.00054276
C       -0.02343321       7.07124614       4.99383288       0.00210805       0.00028436      -0.00278990
C       -1.25677777       7.78321901       4.99409187      -0.00200006      -0.00408188       0.00296602
C       -1.25680367       9.20711639       4.99417992       0.00020749       0.00590377       0.00014758
C       -2.49013269       9.91916005       4.99766072      -0.00031393      -0.00513526       0.00034401
C       -2.49016204      11.34308678       5.00038182       0.00160771       0.00918655      -0.00311566
C       -3.72341854      12.05522713       5.00648357      -0.00276831      -0.00516637      -0.00535458
C       -3.72343926      13.47927127       5.00773707       0.00296294       0.00432691      -0.00175761
C       -4.95678037      14.19128039       5.01155109      -0.00317557      -0.00233405      -0.00306116
C        6.14297879       0.66287224       5.00079447      -0.00005965       0.00043323       0.00037461
C        4.90964459       1.37480367       5.00492619      -0.00642750      -0.00027562      -0.00450997
C        4.90948920       2.79900493       5.00271789       0.00351881      -0.00258447       0.00221115
C        3.67616018       3.51077061       5.00264192      -0.00418241       0.00237801      -0.00233945
C        3.67600824       4.93497187       4.99931651       0.00395590      -0.00322545       0.00132977
C        2.44292267       5.64728142       4.99615859      -0.00506764       0.00343782       0.00035250
C        2.44295893       7.07139117       4.99303865       0.00133003       0.00079576      -0.00667921
C        1.20985955       7.78331051       4.99330454      -0.00443952      -0.00338177      -0.00038952
C        1.20977149       9.20720099       4.99477559       0.00144959       0.00159331      -0.00200058
C       -0.02354371       9.91924292       4.99421273      -0.00077750      -0.00690958       0.00036741
C       -0.02359033      11.34313513       4.99545760      -0.00056281       0.00767911       0.00050728
C       -1.25687618      12.05525993       4.99712720      -0.00099065      -0.00656326       0.00123413
C       -1.25688482      13.47926091       4.99729296      -0.00022240       0.00516355       0.00062298
C       -2.49009643      14.19151176       5.00194956      -0.00452308      -0.00620690      -0.00153109
C        8.60943137       0.66270304       4.99321476      -0.00469972       0.00312852       0.00975862
C        7.37625601       1.37498496       4.99559745      -0.00472543      -0.00023886       0.00185762
C        7.37602293       2.79915687       4.99674045      -0.00064406      -0.00471772       0.00381809
C        6.14278714       3.51117290       5.00023160      -0.00101687       0.00318457      -0.00304984
C        6.14288728       4.93525330       5.00051649      -0.00069368      -0.00523014       0.00173164
C        4.90950992       5.64690848       4.99901954      -0.00149355       0.00221063      -0.00080270
C        4.90907137       7.07143952       4.99694419      -0.00027999      -0.00308044      -0.00041652
C        3.67573544       7.78354878       4.99299031      -0.00409782      -0.00144110      -0.00034761
C        3.67595299       9.20711639       4.99990701      -0.00046640       0.00081787      -0.00292823
C        2.44299174       9.91921012       4.99915249      -0.00276316      -0.00623467      -0.00187433
C        2.44293821      11.34308506       5.00226379      -0.00205508       0.00342677      -0.00156246
C        1.20966099      12.05523921       4.99796978       0.00068057      -0.00569628      -0.00134572
C        1.20967480      13.47918149       4.99697354      -0.00391270       0.00346945       0.00428294
C       -0.02359378      14.19135809       4.99468236       0.00046151      -0.00273977      -0.00180209
C       11.07580624       0.66256318       4.99976370      -0.00581661       0.00380343      -0.00100093
C        9.84253075       1.37471906       4.99514508       0.00251711       0.00566080       0.00023757
C        9.84239090       2.79900148       4.99643312      -0.00403458      -0.00253794       0.00564126
C        8.60902044       3.51126441       4.99678879       0.00606626       0.00059135       0.00079884
C        8.60889958       4.93536380       5.00050786       0.00024940      -0.00826173       0.00118708
C        7.37573459       5.64740055       5.00178726       0.00349927       0.00004808       0.00192036
C        7.37597803       7.07123751       5.00595351      -0.00137528      -0.00803290      -0.00209776
C        6.14283376       7.78331224       5.00500043       0.00280456      -0.00022600       0.00189413
C        6.14266455       9.20739955       5.01214504      -0.00212270      -0.00093897      -0.00124750
C        4.90908000       9.91911861       5.00990393       0.00064020      -0.00141771      -0.00271894
C        4.90940287      11.34315239       5.01362127      -0.00328793       0.00313083      -0.00272845
C        3.67611011      12.05510109       5.00840353       0.00134469      -0.00111072       0.00213582
C        3.67615155      13.47909516       5.00773016      -0.00440584       0.00375253      -0.00721246
C        2.44282944      14.19121133       5.00103792       0.00207642       0.00015838       0.00100479
C       13.54212414       0.66262879       5.00723809      -0.00170773       0.00002597       0.00000591
C       12.30881757       1.37466554       5.00391786       0.00786372       0.00597602      -0.00026045
C       12.30901268       2.79888407       5.00402491      -0.00714150      -0.00279787      -0.00907625
C       11.07561459       3.51091391       5.00086353       0.00557389       0.00526588       0.00379932
C       11.07566639       4.93507029       5.00311673      -0.00635191      -0.00489872      -0.00787272
C        9.84213364       5.64701207       5.00292853       0.00906545       0.00401915       0.00290380
C        9.84232529       7.07101996       5.00604329      -0.00265826      -0.00302387       0.00189902
C        8.60904116       7.78305671       5.00904237       0.00361831      -0.00012727       0.00133697
C        8.60924835       9.20706459       5.01329322      -0.00397930      -0.00159717       0.00173498
C        7.37609372       9.91931371       5.01645460       0.00193321      -0.00161182       0.00098113
C        7.37605055      11.34328189       5.01823988      -0.00311798       0.00095671      -0.00188950
C        6.14265592      12.05524612       5.01674984       0.00120379      -0.00186431       0.00096622
C        6.14262312      13.47931616       5.01370760      -0.00454494      -0.00084435       0.00101430
C        4.90925439      14.19123723       5.01001271       0.00368233       0.00146707       0.00231862
C       16.00861470       0.66277900       5.00727089       0.00179077      -0.00237133       0.00745877
C       14.77526842       1.37471561       5.00648184       0.00703737       0.00423821       0.00092148
C       14.77553949       2.79891860       5.00453253      -0.00250605      -0.00485656      -0.00370187
C       13.54222774       3.51096744       5.00469483       0.00272126       0.00168433       0.00061938
C       13.54243666       4.93507029       5.00346550      -0.00630023      -0.00449223      -0.00756213
C       12.30902304       5.64696718       5.00342751       0.00114774       0.00179823       0.00248137
C       12.30910936       7.07103722       5.00275760      -0.00535252      -0.00175118      -0.00219624
C       11.07561632       7.78284952       5.00516273       0.00472980       0.00161542       0.00171930
C       11.07580279       9.20681596       5.00690831      -0.00130509       0.00294468       0.00682088
C        9.84256010       9.91891487       5.01198447       0.00013550       0.00253871       0.00406337
C        9.84254629      11.34296765       5.01462269      -0.00157660       0.00541783       0.00350390
C        8.60929151      12.05522195       5.01697084       0.00181520      -0.00110172       0.00005682
C        8.60912231      13.47929199       5.01431708       0.00031342       0.00037230       0.00290560
C        7.37575358      14.19143751       5.01181699       0.00420838      -0.00347562       0.00555358
C        5.03302981       7.16445065       8.33504075       0.00071065       0.00003857      -0.00643727
O        6.05592610       6.59003654       8.38297420      -0.00271406      -0.00102587      -0.01828440
O        4.00987626       7.73908749       8.29483204       0.00929094      -0.00327816       0.00338974
