63
Lattice="8.315575849598094 0.0 0.0 4.157787924799047 7.20149657514819 0.0 0.0 0.0 26.05284881715612" Properties=species:S:1:pos:R:3:forces:R:3 energy=-464418.354814522 free_energy=-464418.354814522 pbc="T T T"
C        1.50915934       1.24245310      18.96325056       0.00032627       0.01810828       0.01070145
C        2.89447461       2.06967742      18.97503765       0.00147658       0.01951107       0.01260175
C        2.89508378       3.64289811      18.96327534       0.00060190       0.01871583       0.01026590
C        4.28040107       4.47017616      18.97501289       0.00153263       0.01842787       0.01282955
C        4.28101418       6.04337771      18.96322605       0.00052142       0.02057525       0.01045102
C        5.66633045       6.87075755      18.97499402       0.00167302       0.01693071       0.01277838
C        4.28100780       1.24243254      18.96326125       0.00088035       0.01821858       0.01048084
C        5.66634606       2.06965914      18.97502692       0.00094051       0.02001552       0.01256627
C        5.66693997       3.64290794      18.96325794       0.00078213       0.01831757       0.01013015
C        7.05227913       4.47019557      18.97502024       0.00109863       0.01865130       0.01291928
C        7.05287850       6.04341133      18.96326730       0.00055047       0.01995510       0.01014249
C        8.43820360       6.87074940      18.97502411       0.00096622       0.01717137       0.01272979
C        7.05285685       1.24245578      18.96323907       0.00138197       0.01767196       0.01057109
C        8.43821051       2.06968112      18.97502344       0.00079627       0.02023021       0.01248631
C        8.43879470       3.64295009      18.96329472       0.00113540       0.01746345       0.00989772
C        9.82414242       4.47017943      18.97504323       0.00059650       0.01893772       0.01265266
C        9.82471209       6.04340555      18.96325423       0.00145087       0.01981061       0.01026744
C       11.21007142       6.87073444      18.97499412       0.00062838       0.01754341       0.01258401
Pt       1.61691751       2.00041662       7.50000000      -0.00155577       0.03979965      -0.65244314
Pt       4.38877609       2.00041662       7.50000000      -0.00128375       0.03986187      -0.65244314
Pt       7.16063467       2.00041662       7.50000000      -0.00150024       0.03966389      -0.65233695
Pt       3.00284680       4.40091657       7.50000000      -0.00139097       0.04013106      -0.65237963
Pt       5.77470538       4.40091657       7.50000000      -0.00156786       0.03991741      -0.65247451
Pt       8.54656396       4.40091657       7.50000000      -0.00141616       0.03993720      -0.65238915
Pt       4.38877609       6.80141652       7.50000000      -0.00166119       0.03993180      -0.65233592
Pt       7.16063467       6.80141652       7.50000000      -0.00146913       0.03993849      -0.65245471
Pt       9.93249325       6.80141652       7.50000000      -0.00123362       0.04001202      -0.65227113
Pt       1.61691751       0.40008332       9.76321306       0.00237930      -0.07532201       0.67076893
Pt       4.38877609       0.40008332       9.76321306       0.00300305      -0.07527290       0.67080827
Pt       7.16063467       0.40008332       9.76321306       0.00250580      -0.07540043       0.67126027
Pt       3.00284680       2.80058327       9.76321306       0.00270866      -0.07507364       0.67102424
Pt       5.77470538       2.80058327       9.76321306       0.00266881      -0.07542717       0.67097616
Pt       8.54656396       2.80058327       9.76321306       0.00248266      -0.07535955       0.67093914
Pt       4.38877609       5.20108322       9.76321306       0.00235693      -0.07517134       0.67146956
Pt       7.16063467       5.20108322       9.76321306       0.00265081      -0.07532869       0.67089492
Pt       9.93249325       5.20108322       9.76321306       0.00287064      -0.07503559       0.67143613
Pt       3.00303859       1.09011627      12.11734114      -0.00292412      -0.00835814      -0.00137837
Pt       5.77478682       1.09014220      12.11738863      -0.00075950      -0.00915596      -0.00174038
Pt       8.54678475       1.09017345      12.11732871      -0.00375818      -0.00946423      -0.00131512
Pt       4.38894416       3.49044776      12.11742678      -0.00263872      -0.00553610      -0.00184014
Pt       7.16077741       3.49057346      12.11739851      -0.00230319      -0.00774751      -0.00187871
Pt       9.93265521       3.49047786      12.11740848      -0.00233739      -0.00601870      -0.00171055
Pt       5.77494840       5.89113247      12.11733604      -0.00423538      -0.00854249      -0.00142413
Pt       8.54666290       5.89114872      12.11737443      -0.00103153      -0.00886182      -0.00166325
Pt      11.31855942       5.89106962      12.11741570      -0.00208491      -0.00775625      -0.00181726
Pt       1.59785412       1.84283777      14.47800061      -0.00159357      -0.00082481      -0.02188549
Pt       4.36963414       1.84287690      14.47799218      -0.00022883      -0.00106212      -0.02164252
Pt       7.14155144       1.84287889      14.47797062      -0.00113463      -0.00169307      -0.02190503
Pt       2.98373762       4.24335019      14.47805653      -0.00081992      -0.00048980      -0.02243030
Pt       5.75564340       4.24340876      14.47799454      -0.00158894      -0.00164962      -0.02188112
Pt       8.52745581       4.24338920      14.47796385      -0.00057207      -0.00145962      -0.02170937
Pt       4.36974301       6.64387004      14.47796286      -0.00214610      -0.00140459      -0.02189783
Pt       7.14153305       6.64389872      14.47799147      -0.00089706      -0.00155372      -0.02165357
Pt       9.91332843       6.64388096      14.47802303       0.00016224      -0.00133852      -0.02213077
Pt       1.50917054       0.51353685      16.87377469      -0.00059572       0.00696949      -0.01814685
Pt       4.28094001       0.51352067      16.87374356       0.00127244       0.00724305      -0.01782752
Pt       7.05284419       0.51354445      16.87376122       0.00039646       0.00695329      -0.01827437
Pt       2.89505867       2.91398088      16.87375279       0.00040495       0.00802467      -0.01774704
Pt       5.66689927       2.91403424      16.87374561       0.00075051       0.00729448      -0.01795453
Pt       8.43881354       2.91406051      16.87372438      -0.00021906       0.00699777      -0.01758326
Pt       4.28100560       5.31452285      16.87381484      -0.00005554       0.00736827      -0.01870632
Pt       7.05285686       5.31456647      16.87381840       0.00016944       0.00663859      -0.01845358
Pt       9.82468642       5.31452783      16.87382337       0.00088137       0.00737007      -0.01850834
